ver_1.0
     RDKit          2D

  1  0  0  0  0  0  0  0  0  0999 V2000
    0.0000    0.0000    0.0000 C   0  0  0  0  0  0  0  0  0  0  0  0
M  END
>  <original SMILES>  (1) 
molecule smiles

>  <AutoDock Predicted Affinity>  (1) 
Binding Affinity from AutoDock

>  <ref_pdb>  (1) 
the reference pdb this lig should be shown with

>  <ref_mols>  (1) 
reference molecules

>  <creator>  (1) 
the person who ran the algorithm

>  <energy minimised>  (1) 
boolean: was the molecule energy minimised?

$$$$
WPC0322_minimised.pdb
     RDKit          3D

 19 20  0  0  0  0  0  0  0  0999 V2000
    9.7270   -3.6480   23.7300 C   0  0  0  0  0  0  0  0  0  0  0  0
    9.2370   -2.5590   23.6210 C   0  0  0  0  0  0  0  0  0  0  0  0
    8.6870   -1.1980   23.5190 C   0  0  0  0  0  0  0  0  0  0  0  0
    9.2800   -0.4240   22.4100 N   0  0  0  0  0  0  0  0  0  0  0  0
    8.5730    0.0380   21.3080 C   0  0  0  0  0  0  0  0  0  0  0  0
    9.1240    0.6280   20.4020 O   0  0  0  0  0  0  0  0  0  0  0  0
    7.2140   -0.1680   21.2350 N   0  0  0  0  0  0  0  0  0  0  0  0
    6.4150    0.2980   20.1540 C   0  0  0  0  0  0  0  0  0  0  0  0
    5.4270    1.2650   20.3830 C   0  0  0  0  0  0  0  0  0  0  0  0
    4.7770    1.8150   19.2680 C   0  0  0  0  0  0  0  0  0  0  0  0
    5.1240    1.3850   17.9770 C   0  0  0  0  0  0  0  0  0  0  0  0
    6.0410    0.4200   17.7460 N   0  0  0  0  0  0  0  0  0  0  0  0
    6.6880   -0.0830   18.8200 C   0  0  0  0  0  0  0  0  0  0  0  0
   10.6680   -0.1350   22.5050 C   0  0  0  0  0  0  0  0  0  0  0  0
   11.6090   -0.9910   21.9100 C   0  0  0  0  0  0  0  0  0  0  0  0
   12.9770   -0.6750   21.9410 C   0  0  0  0  0  0  0  0  0  0  0  0
   13.4060    0.5040   22.5700 C   0  0  0  0  0  0  0  0  0  0  0  0
   12.4640    1.3710   23.1470 C   0  0  0  0  0  0  0  0  0  0  0  0
   11.0980    1.0500   23.1210 C   0  0  0  0  0  0  0  0  0  0  0  0
  1  2  3  0
  2  3  1  0
  3  4  1  0
  4  5  1  0
  4 14  1  0
  5  7  1  0
  5  6  2  0
  7  8  1  0
  8  9  2  0
  8 13  1  0
  9 10  1  0
 10 11  2  0
 11 12  1  0
 12 13  2  0
 14 15  2  0
 14 19  1  0
 15 16  1  0
 16 17  2  0
 17 18  1  0
 18 19  2  0
M  END
>  <original SMILES>  (2) 
C#CCN(C(=O)Nc1cccnc1)c1ccccc1

>  <AutoDock Predicted Affinity>  (2) 
-6.050735

>  <ref_pdb>  (2) 
x0434_0

>  <ref_mols>  (2) 
x0434_0

>  <creator>  (2) 
Will Poole

>  <energy minimised>  (2) 
True

$$$$
WPC0359_minimised.pdb
     RDKit          3D

 20 21  0  0  0  0  0  0  0  0999 V2000
    8.7760   -2.3940   24.0430 C   0  0  0  0  0  0  0  0  0  0  0  0
    8.7420   -2.9430   22.6250 C   0  0  0  0  0  0  0  0  0  0  0  0
    8.2340   -4.0080   22.3290 O   0  0  0  0  0  0  0  0  0  0  0  0
    9.3080   -2.1830   21.6260 N   0  0  0  0  0  0  0  0  0  0  0  0
    9.6330   -0.7940   21.6910 N   0  0  0  0  0  0  0  0  0  0  0  0
    8.7880    0.1420   21.0810 C   0  0  0  0  0  0  0  0  0  0  0  0
    9.1210    1.2860   20.8390 O   0  0  0  0  0  0  0  0  0  0  0  0
    7.5640   -0.3400   20.6830 N   0  0  0  0  0  0  0  0  0  0  0  0
    6.6740    0.2850   19.7750 C   0  0  0  0  0  0  0  0  0  0  0  0
    5.7970    1.2900   20.2030 C   0  0  0  0  0  0  0  0  0  0  0  0
    4.9980    1.9180   19.2350 C   0  0  0  0  0  0  0  0  0  0  0  0
    5.1150    1.5410   17.8860 C   0  0  0  0  0  0  0  0  0  0  0  0
    5.9380    0.5510   17.4730 N   0  0  0  0  0  0  0  0  0  0  0  0
    6.7060   -0.0470   18.4070 C   0  0  0  0  0  0  0  0  0  0  0  0
   10.9470   -0.4440   22.1120 C   0  0  0  0  0  0  0  0  0  0  0  0
   12.0600   -1.1560   21.6360 C   0  0  0  0  0  0  0  0  0  0  0  0
   13.3640   -0.7500   21.9590 C   0  0  0  0  0  0  0  0  0  0  0  0
   13.5640    0.3770   22.7710 C   0  0  0  0  0  0  0  0  0  0  0  0
   12.4580    1.0860   23.2630 C   0  0  0  0  0  0  0  0  0  0  0  0
   11.1550    0.6750   22.9400 C   0  0  0  0  0  0  0  0  0  0  0  0
  1  2  1  0
  2  4  1  0
  2  3  2  0
  4  5  1  0
  5  6  1  0
  5 15  1  0
  6  8  1  0
  6  7  2  0
  8  9  1  0
  9 10  2  0
  9 14  1  0
 10 11  1  0
 11 12  2  0
 12 13  1  0
 13 14  2  0
 15 16  2  0
 15 20  1  0
 16 17  1  0
 17 18  2  0
 18 19  1  0
 19 20  2  0
M  END
>  <original SMILES>  (3) 
CC(=O)NN(C(=O)Nc1cccnc1)c1ccccc1

>  <AutoDock Predicted Affinity>  (3) 
-6.314403

>  <ref_pdb>  (3) 
x0434_0

>  <ref_mols>  (3) 
x0434_0

>  <creator>  (3) 
Will Poole

>  <energy minimised>  (3) 
True

$$$$
WPC0351_minimised.pdb
     RDKit          3D

 23 24  0  0  0  0  0  0  0  0999 V2000
    7.0230   -3.3160   24.9090 C   0  0  0  0  0  0  0  0  0  0  0  0
    7.5690   -3.6500   23.4990 C   0  0  0  0  0  0  0  0  0  0  0  0
    6.4410   -4.2430   22.6290 C   0  0  0  0  0  0  0  0  0  0  0  0
    8.7510   -4.6490   23.5570 C   0  0  0  0  0  0  0  0  0  0  0  0
    7.9630   -2.4400   22.8060 O   0  0  0  0  0  0  0  0  0  0  0  0
    8.9520   -1.6080   23.2620 C   0  0  0  0  0  0  0  0  0  0  0  0
    9.5970   -1.8180   24.2730 O   0  0  0  0  0  0  0  0  0  0  0  0
    9.3120   -0.6320   22.3480 N   0  0  0  0  0  0  0  0  0  0  0  0
    8.5900   -0.1660   21.2610 C   0  0  0  0  0  0  0  0  0  0  0  0
    9.1090    0.5290   20.4060 O   0  0  0  0  0  0  0  0  0  0  0  0
    7.2420   -0.4250   21.1510 N   0  0  0  0  0  0  0  0  0  0  0  0
    6.4260    0.1010   20.1100 C   0  0  0  0  0  0  0  0  0  0  0  0
    5.4610    1.0760   20.3980 C   0  0  0  0  0  0  0  0  0  0  0  0
    4.8050    1.6900   19.3200 C   0  0  0  0  0  0  0  0  0  0  0  0
    5.1250    1.3130   18.0060 C   0  0  0  0  0  0  0  0  0  0  0  0
    6.0280    0.3500   17.7190 N   0  0  0  0  0  0  0  0  0  0  0  0
    6.6810   -0.2140   18.7580 C   0  0  0  0  0  0  0  0  0  0  0  0
   10.5900   -0.0370   22.5390 C   0  0  0  0  0  0  0  0  0  0  0  0
   11.7360   -0.6460   22.0010 C   0  0  0  0  0  0  0  0  0  0  0  0
   12.9990   -0.0580   22.1810 C   0  0  0  0  0  0  0  0  0  0  0  0
   13.1140    1.1450   22.8960 C   0  0  0  0  0  0  0  0  0  0  0  0
   11.9650    1.7690   23.4100 C   0  0  0  0  0  0  0  0  0  0  0  0
   10.7060    1.1750   23.2400 C   0  0  0  0  0  0  0  0  0  0  0  0
  1  2  1  0
  2  5  1  0
  2  3  1  0
  2  4  1  0
  5  6  1  0
  6  8  1  0
  6  7  2  0
  8  9  1  0
  8 18  1  0
  9 11  1  0
  9 10  2  0
 11 12  1  0
 12 13  2  0
 12 17  1  0
 13 14  1  0
 14 15  2  0
 15 16  1  0
 16 17  2  0
 18 19  2  0
 18 23  1  0
 19 20  1  0
 20 21  2  0
 21 22  1  0
 22 23  2  0
M  END
>  <original SMILES>  (4) 
CC(C)(C)OC(=O)N(C(=O)Nc1cccnc1)c1ccccc1

>  <AutoDock Predicted Affinity>  (4) 
-6.72615

>  <ref_pdb>  (4) 
x0434_0

>  <ref_mols>  (4) 
x0434_0

>  <creator>  (4) 
Will Poole

>  <energy minimised>  (4) 
True

$$$$
WPC0353_minimised.pdb
     RDKit          3D

 18 19  0  0  0  0  0  0  0  0999 V2000
    8.4320   -2.4970   23.4200 C   0  0  0  0  0  0  0  0  0  0  0  0
    8.5650   -0.9750   23.6190 C   0  0  0  0  0  0  0  0  0  0  0  0
    9.2220   -0.3260   22.4710 N   0  0  0  0  0  0  0  0  0  0  0  0
    8.5410    0.1320   21.3510 C   0  0  0  0  0  0  0  0  0  0  0  0
    9.1140    0.6820   20.4340 O   0  0  0  0  0  0  0  0  0  0  0  0
    7.1800   -0.0620   21.2760 N   0  0  0  0  0  0  0  0  0  0  0  0
    6.3890    0.3730   20.1780 C   0  0  0  0  0  0  0  0  0  0  0  0
    5.3830    1.3270   20.3770 C   0  0  0  0  0  0  0  0  0  0  0  0
    4.7460    1.8510   19.2430 C   0  0  0  0  0  0  0  0  0  0  0  0
    5.1210    1.4060   17.9650 C   0  0  0  0  0  0  0  0  0  0  0  0
    6.0530    0.4480   17.7630 N   0  0  0  0  0  0  0  0  0  0  0  0
    6.6900   -0.0280   18.8550 C   0  0  0  0  0  0  0  0  0  0  0  0
   10.6250   -0.1380   22.5520 C   0  0  0  0  0  0  0  0  0  0  0  0
   11.4990   -1.0870   21.9940 C   0  0  0  0  0  0  0  0  0  0  0  0
   12.8850   -0.8530   21.9830 C   0  0  0  0  0  0  0  0  0  0  0  0
   13.3980    0.3320   22.5360 C   0  0  0  0  0  0  0  0  0  0  0  0
   12.5260    1.2820   23.0900 C   0  0  0  0  0  0  0  0  0  0  0  0
   11.1420    1.0480   23.0990 C   0  0  0  0  0  0  0  0  0  0  0  0
  1  2  1  0
  2  3  1  0
  3  4  1  0
  3 13  1  0
  4  6  1  0
  4  5  2  0
  6  7  1  0
  7  8  2  0
  7 12  1  0
  8  9  1  0
  9 10  2  0
 10 11  1  0
 11 12  2  0
 13 14  2  0
 13 18  1  0
 14 15  1  0
 15 16  2  0
 16 17  1  0
 17 18  2  0
M  END
>  <original SMILES>  (5) 
CCN(C(=O)Nc1cccnc1)c1ccccc1

>  <AutoDock Predicted Affinity>  (5) 
-5.716773

>  <ref_pdb>  (5) 
x0434_0

>  <ref_mols>  (5) 
x0434_0

>  <creator>  (5) 
Will Poole

>  <energy minimised>  (5) 
True

$$$$
WPC0364_minimised.pdb
     RDKit          3D

 17 18  0  0  0  0  0  0  0  0999 V2000
    8.2420   -0.6080   23.5970 C   0  0  0  0  0  0  0  0  0  0  0  0
    8.9800   -0.1960   22.3900 N   0  0  0  0  0  0  0  0  0  0  0  0
    8.3520    0.1010   21.1900 C   0  0  0  0  0  0  0  0  0  0  0  0
    8.9710    0.4300   20.1990 O   0  0  0  0  0  0  0  0  0  0  0  0
    6.9800    0.0310   21.1440 N   0  0  0  0  0  0  0  0  0  0  0  0
    6.2090    0.4610   20.0310 C   0  0  0  0  0  0  0  0  0  0  0  0
    5.2250    1.4390   20.2180 C   0  0  0  0  0  0  0  0  0  0  0  0
    4.6030    1.9660   19.0780 C   0  0  0  0  0  0  0  0  0  0  0  0
    4.9820    1.5110   17.8050 C   0  0  0  0  0  0  0  0  0  0  0  0
    5.8890    0.5270   17.6150 N   0  0  0  0  0  0  0  0  0  0  0  0
    6.5010    0.0360   18.7140 C   0  0  0  0  0  0  0  0  0  0  0  0
   10.3850   -0.0420   22.5030 C   0  0  0  0  0  0  0  0  0  0  0  0
   11.2500   -1.0020   21.9520 C   0  0  0  0  0  0  0  0  0  0  0  0
   12.6400   -0.7960   21.9720 C   0  0  0  0  0  0  0  0  0  0  0  0
   13.1680    0.3680   22.5540 C   0  0  0  0  0  0  0  0  0  0  0  0
   12.3050    1.3280   23.1050 C   0  0  0  0  0  0  0  0  0  0  0  0
   10.9160    1.1230   23.0810 C   0  0  0  0  0  0  0  0  0  0  0  0
  1  2  1  0
  2  3  1  0
  2 12  1  0
  3  5  1  0
  3  4  2  0
  5  6  1  0
  6  7  2  0
  6 11  1  0
  7  8  1  0
  8  9  2  0
  9 10  1  0
 10 11  2  0
 12 13  2  0
 12 17  1  0
 13 14  1  0
 14 15  2  0
 15 16  1  0
 16 17  2  0
M  END
>  <original SMILES>  (6) 
CN(C(=O)Nc1cccnc1)c1ccccc1

>  <AutoDock Predicted Affinity>  (6) 
-5.48799

>  <ref_pdb>  (6) 
x0434_0

>  <ref_mols>  (6) 
x0434_0

>  <creator>  (6) 
Will Poole

>  <energy minimised>  (6) 
True

$$$$
WPC0352_minimised.pdb
     RDKit          3D

 20 21  0  0  0  0  0  0  0  0999 V2000
    9.8190   -4.9590   24.8950 C   0  0  0  0  0  0  0  0  0  0  0  0
    9.0300   -3.9880   24.1800 O   0  0  0  0  0  0  0  0  0  0  0  0
    9.7830   -2.8660   23.6860 C   0  0  0  0  0  0  0  0  0  0  0  0
    8.8040   -1.9620   22.9020 C   0  0  0  0  0  0  0  0  0  0  0  0
    9.4050   -0.7970   22.2030 N   0  0  0  0  0  0  0  0  0  0  0  0
    8.6880   -0.0520   21.2740 C   0  0  0  0  0  0  0  0  0  0  0  0
    9.1970    0.8360   20.6180 O   0  0  0  0  0  0  0  0  0  0  0  0
    7.3640   -0.3680   21.0850 N   0  0  0  0  0  0  0  0  0  0  0  0
    6.5500    0.1930   20.0670 C   0  0  0  0  0  0  0  0  0  0  0  0
    5.5680    1.1400   20.3850 C   0  0  0  0  0  0  0  0  0  0  0  0
    4.8790    1.7510   19.3240 C   0  0  0  0  0  0  0  0  0  0  0  0
    5.1810    1.3920   18.0000 C   0  0  0  0  0  0  0  0  0  0  0  0
    6.1010    0.4520   17.6870 N   0  0  0  0  0  0  0  0  0  0  0  0
    6.7870   -0.1040   18.7080 C   0  0  0  0  0  0  0  0  0  0  0  0
   10.7550   -0.4410   22.4610 C   0  0  0  0  0  0  0  0  0  0  0  0
   11.7990   -1.0820   21.7770 C   0  0  0  0  0  0  0  0  0  0  0  0
   13.1270   -0.6570   21.9410 C   0  0  0  0  0  0  0  0  0  0  0  0
   13.4110    0.4310   22.7800 C   0  0  0  0  0  0  0  0  0  0  0  0
   12.3670    1.0850   23.4530 C   0  0  0  0  0  0  0  0  0  0  0  0
   11.0430    0.6440   23.3030 C   0  0  0  0  0  0  0  0  0  0  0  0
  1  2  1  0
  2  3  1  0
  3  4  1  0
  4  5  1  0
  5  6  1  0
  5 15  1  0
  6  8  1  0
  6  7  2  0
  8  9  1  0
  9 10  2  0
  9 14  1  0
 10 11  1  0
 11 12  2  0
 12 13  1  0
 13 14  2  0
 15 16  2  0
 15 20  1  0
 16 17  1  0
 17 18  2  0
 18 19  1  0
 19 20  2  0
M  END
>  <original SMILES>  (7) 
COCCN(C(=O)Nc1cccnc1)c1ccccc1

>  <AutoDock Predicted Affinity>  (7) 
-5.821999

>  <ref_pdb>  (7) 
x0434_0

>  <ref_mols>  (7) 
x0434_0

>  <creator>  (7) 
Will Poole

>  <energy minimised>  (7) 
True

$$$$
WPC0326_minimised.pdb
     RDKit          3D

 20 21  0  0  0  0  0  0  0  0999 V2000
    8.3730   -5.2100   23.9620 N   0  0  0  0  0  0  0  0  0  0  0  0
    8.9950   -4.2590   23.7670 C   0  0  0  0  0  0  0  0  0  0  0  0
    9.7190   -3.0240   23.4510 C   0  0  0  0  0  0  0  0  0  0  0  0
    8.7630   -2.0230   22.7610 C   0  0  0  0  0  0  0  0  0  0  0  0
    9.3760   -0.8300   22.1290 N   0  0  0  0  0  0  0  0  0  0  0  0
    8.6680   -0.0520   21.2170 C   0  0  0  0  0  0  0  0  0  0  0  0
    9.1810    0.8600   20.6010 O   0  0  0  0  0  0  0  0  0  0  0  0
    7.3470   -0.3660   21.0020 N   0  0  0  0  0  0  0  0  0  0  0  0
    6.5390    0.2150   19.9910 C   0  0  0  0  0  0  0  0  0  0  0  0
    5.5640    1.1660   20.3210 C   0  0  0  0  0  0  0  0  0  0  0  0
    4.8710    1.7860   19.2690 C   0  0  0  0  0  0  0  0  0  0  0  0
    5.1660    1.4360   17.9400 C   0  0  0  0  0  0  0  0  0  0  0  0
    6.0800    0.4940   17.6170 N   0  0  0  0  0  0  0  0  0  0  0  0
    6.7670   -0.0750   18.6300 C   0  0  0  0  0  0  0  0  0  0  0  0
   10.7080   -0.4550   22.4470 C   0  0  0  0  0  0  0  0  0  0  0  0
   11.7890   -1.0330   21.7620 C   0  0  0  0  0  0  0  0  0  0  0  0
   13.0970   -0.5650   21.9710 C   0  0  0  0  0  0  0  0  0  0  0  0
   13.3220    0.5040   22.8530 C   0  0  0  0  0  0  0  0  0  0  0  0
   12.2400    1.0940   23.5260 C   0  0  0  0  0  0  0  0  0  0  0  0
   10.9370    0.6080   23.3330 C   0  0  0  0  0  0  0  0  0  0  0  0
  1  2  3  0
  2  3  1  0
  3  4  1  0
  4  5  1  0
  5  6  1  0
  5 15  1  0
  6  8  1  0
  6  7  2  0
  8  9  1  0
  9 10  2  0
  9 14  1  0
 10 11  1  0
 11 12  2  0
 12 13  1  0
 13 14  2  0
 15 16  2  0
 15 20  1  0
 16 17  1  0
 17 18  2  0
 18 19  1  0
 19 20  2  0
M  END
>  <original SMILES>  (8) 
N#CCCN(C(=O)Nc1cccnc1)c1ccccc1

>  <AutoDock Predicted Affinity>  (8) 
-6.27428

>  <ref_pdb>  (8) 
x0434_0

>  <ref_mols>  (8) 
x0434_0

>  <creator>  (8) 
Will Poole

>  <energy minimised>  (8) 
True

$$$$
WPC0315_minimised.pdb
     RDKit          3D

 23 25  0  0  0  0  0  0  0  0999 V2000
    9.3140    1.0120   20.7190 O   0  0  0  0  0  0  0  0  0  0  0  0
    8.9450   -0.0040   21.2720 C   0  0  0  0  0  0  0  0  0  0  0  0
    7.6690   -0.4690   21.0600 N   0  0  0  0  0  0  0  0  0  0  0  0
    6.7790    0.0960   20.1070 C   0  0  0  0  0  0  0  0  0  0  0  0
    5.8470    1.0690   20.4950 C   0  0  0  0  0  0  0  0  0  0  0  0
    5.0710    1.6730   19.4920 C   0  0  0  0  0  0  0  0  0  0  0  0
    5.2460    1.2910   18.1510 C   0  0  0  0  0  0  0  0  0  0  0  0
    6.1280    0.3410   17.7710 N   0  0  0  0  0  0  0  0  0  0  0  0
    6.8960   -0.2110   18.7340 C   0  0  0  0  0  0  0  0  0  0  0  0
    9.7820   -0.7400   22.1000 N   0  0  0  0  0  0  0  0  0  0  0  0
    9.3480   -1.9440   22.8390 C   0  0  0  0  0  0  0  0  0  0  0  0
    8.7540   -1.6660   24.2180 C   0  0  0  0  0  0  0  0  0  0  0  0
    8.4810   -2.7540   25.0680 C   0  0  0  0  0  0  0  0  0  0  0  0
    7.9600   -2.5420   26.3560 C   0  0  0  0  0  0  0  0  0  0  0  0
    7.7200   -1.2340   26.8070 C   0  0  0  0  0  0  0  0  0  0  0  0
    8.0030   -0.1430   25.9750 C   0  0  0  0  0  0  0  0  0  0  0  0
    8.5080   -0.3560   24.6840 C   0  0  0  0  0  0  0  0  0  0  0  0
   11.1350   -0.3470   22.2690 C   0  0  0  0  0  0  0  0  0  0  0  0
   12.1590   -1.1590   21.7620 C   0  0  0  0  0  0  0  0  0  0  0  0
   13.5010   -0.7660   21.8720 C   0  0  0  0  0  0  0  0  0  0  0  0
   13.8220    0.4510   22.4950 C   0  0  0  0  0  0  0  0  0  0  0  0
   12.8000    1.2710   22.9940 C   0  0  0  0  0  0  0  0  0  0  0  0
   11.4590    0.8730   22.8850 C   0  0  0  0  0  0  0  0  0  0  0  0
  1  2  2  0
  2  3  1  0
  2 10  1  0
  3  4  1  0
  4  5  2  0
  4  9  1  0
  5  6  1  0
  6  7  2  0
  7  8  1  0
  8  9  2  0
 10 18  1  0
 10 11  1  0
 11 12  1  0
 12 13  2  0
 12 17  1  0
 13 14  1  0
 14 15  2  0
 15 16  1  0
 16 17  2  0
 18 19  2  0
 18 23  1  0
 19 20  1  0
 20 21  2  0
 21 22  1  0
 22 23  2  0
M  END
>  <original SMILES>  (9) 
O=C(Nc1cccnc1)N(Cc1ccccc1)c1ccccc1

>  <AutoDock Predicted Affinity>  (9) 
-6.726755

>  <ref_pdb>  (9) 
x0434_0

>  <ref_mols>  (9) 
x0434_0

>  <creator>  (9) 
Will Poole

>  <energy minimised>  (9) 
True

$$$$
WPC0303_minimised.pdb
     RDKit          3D

 22 24  0  0  0  0  0  0  0  0999 V2000
    9.2520    1.0290   20.7670 O   0  0  0  0  0  0  0  0  0  0  0  0
    8.9150   -0.0570   21.1940 C   0  0  0  0  0  0  0  0  0  0  0  0
    7.6680   -0.5520   20.8920 N   0  0  0  0  0  0  0  0  0  0  0  0
    6.7680    0.0540   19.9740 C   0  0  0  0  0  0  0  0  0  0  0  0
    5.8940    1.0650   20.3990 C   0  0  0  0  0  0  0  0  0  0  0  0
    5.0810    1.6810   19.4340 C   0  0  0  0  0  0  0  0  0  0  0  0
    5.1710    1.2810   18.0900 C   0  0  0  0  0  0  0  0  0  0  0  0
    5.9990    0.2970   17.6750 N   0  0  0  0  0  0  0  0  0  0  0  0
    6.7960   -0.2750   18.6030 C   0  0  0  0  0  0  0  0  0  0  0  0
    9.7680   -0.8500   21.9540 N   0  0  0  0  0  0  0  0  0  0  0  0
    9.4100   -2.2040   22.4390 C   0  0  0  0  0  0  0  0  0  0  0  0
    8.9180   -2.2610   23.8650 C   0  0  0  0  0  0  0  0  0  0  0  0
    8.8590   -1.1920   24.7280 C   0  0  0  0  0  0  0  0  0  0  0  0
    8.4690   -1.5700   26.0450 C   0  0  0  0  0  0  0  0  0  0  0  0
    8.2340   -2.9180   26.1780 C   0  0  0  0  0  0  0  0  0  0  0  0
    8.5030   -3.7700   24.6620 S   0  0  0  0  0  0  0  0  0  0  0  0
   11.1020   -0.4240   22.1910 C   0  0  0  0  0  0  0  0  0  0  0  0
   12.1720   -1.1420   21.6350 C   0  0  0  0  0  0  0  0  0  0  0  0
   13.4950   -0.7180   21.8240 C   0  0  0  0  0  0  0  0  0  0  0  0
   13.7550    0.4450   22.5650 C   0  0  0  0  0  0  0  0  0  0  0  0
   12.6890    1.1820   23.1020 C   0  0  0  0  0  0  0  0  0  0  0  0
   11.3670    0.7480   22.9190 C   0  0  0  0  0  0  0  0  0  0  0  0
  1  2  2  0
  2  3  1  0
  2 10  1  0
  3  4  1  0
  4  5  2  0
  4  9  1  0
  5  6  1  0
  6  7  2  0
  7  8  1  0
  8  9  2  0
 10 17  1  0
 10 11  1  0
 11 12  1  0
 12 13  2  0
 12 16  1  0
 13 14  1  0
 14 15  2  0
 15 16  1  0
 17 18  2  0
 17 22  1  0
 18 19  1  0
 19 20  2  0
 20 21  1  0
 21 22  2  0
M  END
>  <original SMILES>  (10) 
O=C(Nc1cccnc1)N(Cc1cccs1)c1ccccc1

>  <AutoDock Predicted Affinity>  (10) 
-6.560512

>  <ref_pdb>  (10) 
x0434_0

>  <ref_mols>  (10) 
x0434_0

>  <creator>  (10) 
Will Poole

>  <energy minimised>  (10) 
True

$$$$
WPC0309_minimised.pdb
     RDKit          3D

 17 18  0  0  0  0  0  0  0  0999 V2000
    8.8480    0.1060   19.9640 O   0  0  0  0  0  0  0  0  0  0  0  0
    8.2290    0.0480   21.0090 C   0  0  0  0  0  0  0  0  0  0  0  0
    6.8560    0.0900   21.0120 N   0  0  0  0  0  0  0  0  0  0  0  0
    6.0620    0.5020   19.9090 C   0  0  0  0  0  0  0  0  0  0  0  0
    5.1000    1.5000   20.1060 C   0  0  0  0  0  0  0  0  0  0  0  0
    4.4630    2.0260   18.9750 C   0  0  0  0  0  0  0  0  0  0  0  0
    4.8140    1.5570   17.7000 C   0  0  0  0  0  0  0  0  0  0  0  0
    5.6920    0.5490   17.5020 N   0  0  0  0  0  0  0  0  0  0  0  0
    6.3080    0.0470   18.5930 C   0  0  0  0  0  0  0  0  0  0  0  0
    8.8490   -0.0170   22.2610 N   0  0  0  0  0  0  0  0  0  0  0  0
    8.0730    0.0090   23.4530 O   0  0  0  0  0  0  0  0  0  0  0  0
   10.2520    0.0960   22.4400 C   0  0  0  0  0  0  0  0  0  0  0  0
   11.1240   -0.8400   21.8570 C   0  0  0  0  0  0  0  0  0  0  0  0
   12.5160   -0.6700   21.9550 C   0  0  0  0  0  0  0  0  0  0  0  0
   13.0400    0.4380   22.6400 C   0  0  0  0  0  0  0  0  0  0  0  0
   12.1700    1.3720   23.2260 C   0  0  0  0  0  0  0  0  0  0  0  0
   10.7800    1.2000   23.1300 C   0  0  0  0  0  0  0  0  0  0  0  0
  1  2  2  0
  2  3  1  0
  2 10  1  0
  3  4  1  0
  4  5  2  0
  4  9  1  0
  5  6  1  0
  6  7  2  0
  7  8  1  0
  8  9  2  0
 10 11  1  0
 10 12  1  0
 12 13  2  0
 12 17  1  0
 13 14  1  0
 14 15  2  0
 15 16  1  0
 16 17  2  0
M  END
>  <original SMILES>  (11) 
O=C(Nc1cccnc1)N(O)c1ccccc1

>  <AutoDock Predicted Affinity>  (11) 
-5.49599

>  <ref_pdb>  (11) 
x0434_0

>  <ref_mols>  (11) 
x0434_0

>  <creator>  (11) 
Will Poole

>  <energy minimised>  (11) 
True

$$$$
WPC0313_minimised.pdb
     RDKit          3D

 23 25  0  0  0  0  0  0  0  0999 V2000
    9.4140    1.0270   20.7130 O   0  0  0  0  0  0  0  0  0  0  0  0
    8.9270    0.3240   21.5760 C   0  0  0  0  0  0  0  0  0  0  0  0
    7.5980   -0.0210   21.5040 N   0  0  0  0  0  0  0  0  0  0  0  0
    6.7560    0.3570   20.4210 C   0  0  0  0  0  0  0  0  0  0  0  0
    5.7230    1.2830   20.6210 C   0  0  0  0  0  0  0  0  0  0  0  0
    5.0430    1.7590   19.4890 C   0  0  0  0  0  0  0  0  0  0  0  0
    5.3990    1.2900   18.2130 C   0  0  0  0  0  0  0  0  0  0  0  0
    6.3610    0.3630   18.0120 N   0  0  0  0  0  0  0  0  0  0  0  0
    7.0410   -0.0620   19.1010 C   0  0  0  0  0  0  0  0  0  0  0  0
    9.6800   -0.1760   22.6280 N   0  0  0  0  0  0  0  0  0  0  0  0
   11.0760    0.0590   22.6540 C   0  0  0  0  0  0  0  0  0  0  0  0
   11.9610   -0.9300   22.1910 C   0  0  0  0  0  0  0  0  0  0  0  0
   13.3390   -0.6650   22.1210 C   0  0  0  0  0  0  0  0  0  0  0  0
   13.8300    0.5870   22.5260 C   0  0  0  0  0  0  0  0  0  0  0  0
   12.9460    1.5740   22.9850 C   0  0  0  0  0  0  0  0  0  0  0  0
   11.5700    1.3130   23.0460 C   0  0  0  0  0  0  0  0  0  0  0  0
    9.1940   -0.9410   23.7170 C   0  0  0  0  0  0  0  0  0  0  0  0
    8.9120   -2.3090   23.5560 C   0  0  0  0  0  0  0  0  0  0  0  0
    8.5030   -3.0770   24.6610 C   0  0  0  0  0  0  0  0  0  0  0  0
    8.3810   -2.4760   25.9230 C   0  0  0  0  0  0  0  0  0  0  0  0
    7.9960   -3.2170   26.9800 F   0  0  0  0  0  0  0  0  0  0  0  0
    8.6750   -1.1140   26.0930 C   0  0  0  0  0  0  0  0  0  0  0  0
    9.0840   -0.3470   24.9890 C   0  0  0  0  0  0  0  0  0  0  0  0
  1  2  2  0
  2  3  1  0
  2 10  1  0
  3  4  1  0
  4  5  2  0
  4  9  1  0
  5  6  1  0
  6  7  2  0
  7  8  1  0
  8  9  2  0
 10 17  1  0
 10 11  1  0
 11 12  2  0
 11 16  1  0
 12 13  1  0
 13 14  2  0
 14 15  1  0
 15 16  2  0
 17 18  2  0
 17 23  1  0
 18 19  1  0
 19 20  2  0
 20 21  1  0
 20 22  1  0
 22 23  2  0
M  END
>  <original SMILES>  (12) 
O=C(Nc1cccnc1)N(c1ccccc1)c1ccc(F)cc1

>  <AutoDock Predicted Affinity>  (12) 
-7.13639

>  <ref_pdb>  (12) 
x0434_0

>  <ref_mols>  (12) 
x0434_0

>  <creator>  (12) 
Will Poole

>  <energy minimised>  (12) 
True

$$$$
WPC0320_minimised.pdb
     RDKit          3D

 22 24  0  0  0  0  0  0  0  0999 V2000
    9.2660    1.0050   20.6540 O   0  0  0  0  0  0  0  0  0  0  0  0
    8.8030    0.1900   21.4270 C   0  0  0  0  0  0  0  0  0  0  0  0
    7.4880   -0.1910   21.3090 N   0  0  0  0  0  0  0  0  0  0  0  0
    6.6400    0.2500   20.2550 C   0  0  0  0  0  0  0  0  0  0  0  0
    5.6210    1.1790   20.5060 C   0  0  0  0  0  0  0  0  0  0  0  0
    4.9240    1.7030   19.4040 C   0  0  0  0  0  0  0  0  0  0  0  0
    5.2540    1.2770   18.1060 C   0  0  0  0  0  0  0  0  0  0  0  0
    6.2090    0.3540   17.8560 N   0  0  0  0  0  0  0  0  0  0  0  0
    6.9040   -0.1140   18.9160 C   0  0  0  0  0  0  0  0  0  0  0  0
    9.5690   -0.4060   22.4170 N   0  0  0  0  0  0  0  0  0  0  0  0
   10.9520   -0.1060   22.5170 C   0  0  0  0  0  0  0  0  0  0  0  0
   11.9070   -1.0410   22.0830 C   0  0  0  0  0  0  0  0  0  0  0  0
   13.2740   -0.7150   22.0910 C   0  0  0  0  0  0  0  0  0  0  0  0
   13.6880    0.5460   22.5500 C   0  0  0  0  0  0  0  0  0  0  0  0
   12.7360    1.4810   22.9830 C   0  0  0  0  0  0  0  0  0  0  0  0
   11.3700    1.1580   22.9640 C   0  0  0  0  0  0  0  0  0  0  0  0
    9.1150   -1.4030   23.3180 C   0  0  0  0  0  0  0  0  0  0  0  0
    8.9640   -2.7310   22.8820 C   0  0  0  0  0  0  0  0  0  0  0  0
    8.6130   -3.7380   23.7970 C   0  0  0  0  0  0  0  0  0  0  0  0
    8.3980   -3.4150   25.1480 C   0  0  0  0  0  0  0  0  0  0  0  0
    8.5410   -2.0860   25.5840 C   0  0  0  0  0  0  0  0  0  0  0  0
    8.9070   -1.0830   24.6710 C   0  0  0  0  0  0  0  0  0  0  0  0
  1  2  2  0
  2  3  1  0
  2 10  1  0
  3  4  1  0
  4  5  2  0
  4  9  1  0
  5  6  1  0
  6  7  2  0
  7  8  1  0
  8  9  2  0
 10 17  1  0
 10 11  1  0
 11 12  2  0
 11 16  1  0
 12 13  1  0
 13 14  2  0
 14 15  1  0
 15 16  2  0
 17 18  2  0
 17 22  1  0
 18 19  1  0
 19 20  2  0
 20 21  1  0
 21 22  2  0
M  END
>  <original SMILES>  (13) 
O=C(Nc1cccnc1)N(c1ccccc1)c1ccccc1

>  <AutoDock Predicted Affinity>  (13) 
-7.013115

>  <ref_pdb>  (13) 
x0434_0

>  <ref_mols>  (13) 
x0434_0

>  <creator>  (13) 
Will Poole

>  <energy minimised>  (13) 
True

$$$$
WPC0251_minimised.pdb
     RDKit          3D

 19 20  0  0  0  0  0  0  0  0999 V2000
    8.2330   -3.6920   22.4880 C   0  0  0  0  0  0  0  0  0  0  0  0
    7.6570   -2.6480   22.3590 C   0  0  0  0  0  0  0  0  0  0  0  0
    6.9920   -1.3380   22.2700 C   0  0  0  0  0  0  0  0  0  0  0  0
    7.5760   -0.4090   21.2810 N   0  0  0  0  0  0  0  0  0  0  0  0
    8.8580    0.1180   21.4000 C   0  0  0  0  0  0  0  0  0  0  0  0
    9.2390    1.0180   20.6790 O   0  0  0  0  0  0  0  0  0  0  0  0
    9.6920   -0.4380   22.3360 N   0  0  0  0  0  0  0  0  0  0  0  0
   11.0600   -0.1320   22.4710 C   0  0  0  0  0  0  0  0  0  0  0  0
   12.0200   -1.0820   22.0970 C   0  0  0  0  0  0  0  0  0  0  0  0
   13.3860   -0.7580   22.1360 C   0  0  0  0  0  0  0  0  0  0  0  0
   13.7880    0.5130   22.5790 C   0  0  0  0  0  0  0  0  0  0  0  0
   12.8260    1.4600   22.9650 C   0  0  0  0  0  0  0  0  0  0  0  0
   11.4620    1.1400   22.9040 C   0  0  0  0  0  0  0  0  0  0  0  0
    6.7170    0.0830   20.2530 C   0  0  0  0  0  0  0  0  0  0  0  0
    5.6830    0.9820   20.5570 C   0  0  0  0  0  0  0  0  0  0  0  0
    4.9720    1.5560   19.4910 C   0  0  0  0  0  0  0  0  0  0  0  0
    5.2970    1.2060   18.1720 C   0  0  0  0  0  0  0  0  0  0  0  0
    6.2660    0.3150   17.8690 N   0  0  0  0  0  0  0  0  0  0  0  0
    6.9770   -0.2000   18.8960 C   0  0  0  0  0  0  0  0  0  0  0  0
  1  2  3  0
  2  3  1  0
  3  4  1  0
  4  5  1  0
  4 14  1  0
  5  7  1  0
  5  6  2  0
  7  8  1  0
  8  9  2  0
  8 13  1  0
  9 10  1  0
 10 11  2  0
 11 12  1  0
 12 13  2  0
 14 15  2  0
 14 19  1  0
 15 16  1  0
 16 17  2  0
 17 18  1  0
 18 19  2  0
M  END
>  <original SMILES>  (14) 
C#CCN(C(=O)Nc1ccccc1)c1cccnc1

>  <AutoDock Predicted Affinity>  (14) 
-6.079775

>  <ref_pdb>  (14) 
x0434_0

>  <ref_mols>  (14) 
x0434_0

>  <creator>  (14) 
Will Poole

>  <energy minimised>  (14) 
True

$$$$
WPC0255_minimised.pdb
     RDKit          3D

 20 21  0  0  0  0  0  0  0  0999 V2000
    5.9880   -3.4960   23.1710 C   0  0  0  0  0  0  0  0  0  0  0  0
    6.3770   -2.7770   21.8910 C   0  0  0  0  0  0  0  0  0  0  0  0
    6.3860   -3.3470   20.8130 O   0  0  0  0  0  0  0  0  0  0  0  0
    6.6560   -1.4370   22.0420 N   0  0  0  0  0  0  0  0  0  0  0  0
    7.1950   -0.5850   21.0360 N   0  0  0  0  0  0  0  0  0  0  0  0
    8.5260   -0.1440   21.0750 C   0  0  0  0  0  0  0  0  0  0  0  0
    8.9340    0.7120   20.3160 O   0  0  0  0  0  0  0  0  0  0  0  0
    9.3430   -0.7000   22.0320 N   0  0  0  0  0  0  0  0  0  0  0  0
   10.6970   -0.3540   22.2420 C   0  0  0  0  0  0  0  0  0  0  0  0
   11.7030   -1.3000   22.0060 C   0  0  0  0  0  0  0  0  0  0  0  0
   13.0560   -0.9380   22.1180 C   0  0  0  0  0  0  0  0  0  0  0  0
   13.4010    0.3640   22.5180 C   0  0  0  0  0  0  0  0  0  0  0  0
   12.3940    1.3060   22.7830 C   0  0  0  0  0  0  0  0  0  0  0  0
   11.0430    0.9500   22.6320 C   0  0  0  0  0  0  0  0  0  0  0  0
    6.3010   -0.0390   20.0740 C   0  0  0  0  0  0  0  0  0  0  0  0
    5.4100    0.9870   20.4230 C   0  0  0  0  0  0  0  0  0  0  0  0
    4.7140    1.6350   19.3900 C   0  0  0  0  0  0  0  0  0  0  0  0
    4.9440    1.2600   18.0580 C   0  0  0  0  0  0  0  0  0  0  0  0
    5.7800    0.2560   17.7160 N   0  0  0  0  0  0  0  0  0  0  0  0
    6.4560   -0.3550   18.7100 C   0  0  0  0  0  0  0  0  0  0  0  0
  1  2  1  0
  2  4  1  0
  2  3  2  0
  4  5  1  0
  5  6  1  0
  5 15  1  0
  6  8  1  0
  6  7  2  0
  8  9  1  0
  9 10  2  0
  9 14  1  0
 10 11  1  0
 11 12  2  0
 12 13  1  0
 13 14  2  0
 15 16  2  0
 15 20  1  0
 16 17  1  0
 17 18  2  0
 18 19  1  0
 19 20  2  0
M  END
>  <original SMILES>  (15) 
CC(=O)NN(C(=O)Nc1ccccc1)c1cccnc1

>  <AutoDock Predicted Affinity>  (15) 
-6.356092

>  <ref_pdb>  (15) 
x0434_0

>  <ref_mols>  (15) 
x0434_0

>  <creator>  (15) 
Will Poole

>  <energy minimised>  (15) 
True

$$$$
WPC0266_minimised.pdb
     RDKit          3D

 23 24  0  0  0  0  0  0  0  0999 V2000
    6.5190   -3.7650   23.9340 C   0  0  0  0  0  0  0  0  0  0  0  0
    7.7510   -3.9440   23.0160 C   0  0  0  0  0  0  0  0  0  0  0  0
    7.5840   -5.1480   22.0590 C   0  0  0  0  0  0  0  0  0  0  0  0
    9.0270   -4.1300   23.8680 C   0  0  0  0  0  0  0  0  0  0  0  0
    7.9810   -2.7190   22.2790 O   0  0  0  0  0  0  0  0  0  0  0  0
    7.1380   -2.1680   21.3560 C   0  0  0  0  0  0  0  0  0  0  0  0
    6.1240   -2.7320   20.9690 O   0  0  0  0  0  0  0  0  0  0  0  0
    7.5270   -0.9170   20.8780 N   0  0  0  0  0  0  0  0  0  0  0  0
    8.7210   -0.2250   21.1140 C   0  0  0  0  0  0  0  0  0  0  0  0
    8.9210    0.8630   20.6050 O   0  0  0  0  0  0  0  0  0  0  0  0
    9.6940   -0.7870   21.9060 N   0  0  0  0  0  0  0  0  0  0  0  0
   10.9920   -0.2930   22.1580 C   0  0  0  0  0  0  0  0  0  0  0  0
   12.0860   -1.1430   21.9500 C   0  0  0  0  0  0  0  0  0  0  0  0
   13.3940   -0.6790   22.1520 C   0  0  0  0  0  0  0  0  0  0  0  0
   13.6090    0.6320   22.6060 C   0  0  0  0  0  0  0  0  0  0  0  0
   12.5130    1.4800   22.8390 C   0  0  0  0  0  0  0  0  0  0  0  0
   11.2060    1.0210   22.6070 C   0  0  0  0  0  0  0  0  0  0  0  0
    6.6200   -0.2520   19.9850 C   0  0  0  0  0  0  0  0  0  0  0  0
    5.6840    0.6750   20.4750 C   0  0  0  0  0  0  0  0  0  0  0  0
    4.9120    1.3930   19.5470 C   0  0  0  0  0  0  0  0  0  0  0  0
    5.0930    1.1720   18.1730 C   0  0  0  0  0  0  0  0  0  0  0  0
    5.9760    0.2700   17.6930 N   0  0  0  0  0  0  0  0  0  0  0  0
    6.7330   -0.4010   18.5860 C   0  0  0  0  0  0  0  0  0  0  0  0
  1  2  1  0
  2  5  1  0
  2  3  1  0
  2  4  1  0
  5  6  1  0
  6  8  1  0
  6  7  2  0
  8  9  1  0
  8 18  1  0
  9 11  1  0
  9 10  2  0
 11 12  1  0
 12 13  2  0
 12 17  1  0
 13 14  1  0
 14 15  2  0
 15 16  1  0
 16 17  2  0
 18 19  2  0
 18 23  1  0
 19 20  1  0
 20 21  2  0
 21 22  1  0
 22 23  2  0
M  END
>  <original SMILES>  (16) 
CC(C)(C)OC(=O)N(C(=O)Nc1ccccc1)c1cccnc1

>  <AutoDock Predicted Affinity>  (16) 
-7.124057

>  <ref_pdb>  (16) 
x0434_0

>  <ref_mols>  (16) 
x0434_0

>  <creator>  (16) 
Will Poole

>  <energy minimised>  (16) 
True

$$$$
WPC0287_minimised.pdb
     RDKit          3D

 18 19  0  0  0  0  0  0  0  0999 V2000
    6.2300   -1.4580   23.0590 C   0  0  0  0  0  0  0  0  0  0  0  0
    6.9090   -1.7650   21.7110 C   0  0  0  0  0  0  0  0  0  0  0  0
    7.3770   -0.5420   21.0340 N   0  0  0  0  0  0  0  0  0  0  0  0
    8.6460    0.0020   21.2210 C   0  0  0  0  0  0  0  0  0  0  0  0
    9.0100    0.9790   20.6000 O   0  0  0  0  0  0  0  0  0  0  0  0
    9.4860   -0.6290   22.1070 N   0  0  0  0  0  0  0  0  0  0  0  0
   10.8400   -0.2880   22.3190 C   0  0  0  0  0  0  0  0  0  0  0  0
   11.8420   -1.2210   22.0180 C   0  0  0  0  0  0  0  0  0  0  0  0
   13.1970   -0.8700   22.1410 C   0  0  0  0  0  0  0  0  0  0  0  0
   13.5470    0.4090   22.6060 C   0  0  0  0  0  0  0  0  0  0  0  0
   12.5440    1.3370   22.9280 C   0  0  0  0  0  0  0  0  0  0  0  0
   11.1920    0.9920   22.7750 C   0  0  0  0  0  0  0  0  0  0  0  0
    6.5140    0.0340   20.0560 C   0  0  0  0  0  0  0  0  0  0  0  0
    5.5340    0.9680   20.4240 C   0  0  0  0  0  0  0  0  0  0  0  0
    4.8130    1.6040   19.4000 C   0  0  0  0  0  0  0  0  0  0  0  0
    5.0860    1.2910   18.0590 C   0  0  0  0  0  0  0  0  0  0  0  0
    6.0080    0.3720   17.6960 N   0  0  0  0  0  0  0  0  0  0  0  0
    6.7210   -0.2120   18.6820 C   0  0  0  0  0  0  0  0  0  0  0  0
  1  2  1  0
  2  3  1  0
  3  4  1  0
  3 13  1  0
  4  6  1  0
  4  5  2  0
  6  7  1  0
  7  8  2  0
  7 12  1  0
  8  9  1  0
  9 10  2  0
 10 11  1  0
 11 12  2  0
 13 14  2  0
 13 18  1  0
 14 15  1  0
 15 16  2  0
 16 17  1  0
 17 18  2  0
M  END
>  <original SMILES>  (17) 
CCN(C(=O)Nc1ccccc1)c1cccnc1

>  <AutoDock Predicted Affinity>  (17) 
-5.95012

>  <ref_pdb>  (17) 
x0434_0

>  <ref_mols>  (17) 
x0434_0

>  <creator>  (17) 
Will Poole

>  <energy minimised>  (17) 
True

$$$$
WPC0279_minimised.pdb
     RDKit          3D

 17 18  0  0  0  0  0  0  0  0999 V2000
    6.8140   -1.4240   22.1390 C   0  0  0  0  0  0  0  0  0  0  0  0
    7.3610   -0.4380   21.1930 N   0  0  0  0  0  0  0  0  0  0  0  0
    8.6610    0.0470   21.2930 C   0  0  0  0  0  0  0  0  0  0  0  0
    9.0750    0.9020   20.5400 O   0  0  0  0  0  0  0  0  0  0  0  0
    9.4710   -0.5120   22.2520 N   0  0  0  0  0  0  0  0  0  0  0  0
   10.8440   -0.2230   22.4010 C   0  0  0  0  0  0  0  0  0  0  0  0
   11.7980   -1.1760   22.0180 C   0  0  0  0  0  0  0  0  0  0  0  0
   13.1680   -0.8680   22.0760 C   0  0  0  0  0  0  0  0  0  0  0  0
   13.5810    0.3880   22.5510 C   0  0  0  0  0  0  0  0  0  0  0  0
   12.6260    1.3380   22.9460 C   0  0  0  0  0  0  0  0  0  0  0  0
   11.2580    1.0350   22.8630 C   0  0  0  0  0  0  0  0  0  0  0  0
    6.5010    0.0520   20.1650 C   0  0  0  0  0  0  0  0  0  0  0  0
    5.4450    0.9220   20.4760 C   0  0  0  0  0  0  0  0  0  0  0  0
    4.7330    1.4990   19.4120 C   0  0  0  0  0  0  0  0  0  0  0  0
    5.0770    1.1760   18.0890 C   0  0  0  0  0  0  0  0  0  0  0  0
    6.0620    0.3050   17.7790 N   0  0  0  0  0  0  0  0  0  0  0  0
    6.7770   -0.2060   18.8050 C   0  0  0  0  0  0  0  0  0  0  0  0
  1  2  1  0
  2  3  1  0
  2 12  1  0
  3  5  1  0
  3  4  2  0
  5  6  1  0
  6  7  2  0
  6 11  1  0
  7  8  1  0
  8  9  2  0
  9 10  1  0
 10 11  2  0
 12 13  2  0
 12 17  1  0
 13 14  1  0
 14 15  2  0
 15 16  1  0
 16 17  2  0
M  END
>  <original SMILES>  (18) 
CN(C(=O)Nc1ccccc1)c1cccnc1

>  <AutoDock Predicted Affinity>  (18) 
-5.89436

>  <ref_pdb>  (18) 
x0434_0

>  <ref_mols>  (18) 
x0434_0

>  <creator>  (18) 
Will Poole

>  <energy minimised>  (18) 
True

$$$$
WPC0297_minimised.pdb
     RDKit          3D

 20 21  0  0  0  0  0  0  0  0999 V2000
    6.3570   -5.0910   22.0480 C   0  0  0  0  0  0  0  0  0  0  0  0
    5.8920   -3.7250   22.0660 O   0  0  0  0  0  0  0  0  0  0  0  0
    6.7500   -2.8030   21.3660 C   0  0  0  0  0  0  0  0  0  0  0  0
    6.5870   -1.3880   21.9630 C   0  0  0  0  0  0  0  0  0  0  0  0
    7.2060   -0.3640   21.0980 N   0  0  0  0  0  0  0  0  0  0  0  0
    8.5240    0.0720   21.2290 C   0  0  0  0  0  0  0  0  0  0  0  0
    8.9670    0.9430   20.5110 O   0  0  0  0  0  0  0  0  0  0  0  0
    9.3170   -0.5460   22.1660 N   0  0  0  0  0  0  0  0  0  0  0  0
   10.6900   -0.2700   22.3520 C   0  0  0  0  0  0  0  0  0  0  0  0
   11.6480   -1.2460   22.0400 C   0  0  0  0  0  0  0  0  0  0  0  0
   13.0180   -0.9440   22.1230 C   0  0  0  0  0  0  0  0  0  0  0  0
   13.4300    0.3270   22.5580 C   0  0  0  0  0  0  0  0  0  0  0  0
   12.4720    1.2970   22.8940 C   0  0  0  0  0  0  0  0  0  0  0  0
   11.1040    1.0010   22.7800 C   0  0  0  0  0  0  0  0  0  0  0  0
    6.3890    0.1870   20.0670 C   0  0  0  0  0  0  0  0  0  0  0  0
    5.3570    1.0890   20.3710 C   0  0  0  0  0  0  0  0  0  0  0  0
    4.6730    1.6910   19.3040 C   0  0  0  0  0  0  0  0  0  0  0  0
    5.0200    1.3640   17.9840 C   0  0  0  0  0  0  0  0  0  0  0  0
    5.9860    0.4680   17.6780 N   0  0  0  0  0  0  0  0  0  0  0  0
    6.6750   -0.0660   18.7080 C   0  0  0  0  0  0  0  0  0  0  0  0
  1  2  1  0
  2  3  1  0
  3  4  1  0
  4  5  1  0
  5  6  1  0
  5 15  1  0
  6  8  1  0
  6  7  2  0
  8  9  1  0
  9 10  2  0
  9 14  1  0
 10 11  1  0
 11 12  2  0
 12 13  1  0
 13 14  2  0
 15 16  2  0
 15 20  1  0
 16 17  1  0
 17 18  2  0
 18 19  1  0
 19 20  2  0
M  END
>  <original SMILES>  (19) 
COCCN(C(=O)Nc1ccccc1)c1cccnc1

>  <AutoDock Predicted Affinity>  (19) 
-5.738679

>  <ref_pdb>  (19) 
x0434_0

>  <ref_mols>  (19) 
x0434_0

>  <creator>  (19) 
Will Poole

>  <energy minimised>  (19) 
True

$$$$
WPC0285_minimised.pdb
     RDKit          3D

 24 26  0  0  0  0  0  0  0  0999 V2000
    5.8090   -5.0650   25.2670 C   0  0  0  0  0  0  0  0  0  0  0  0
    4.9610   -4.2910   24.3960 O   0  0  0  0  0  0  0  0  0  0  0  0
    5.5240   -3.3260   23.6050 C   0  0  0  0  0  0  0  0  0  0  0  0
    6.3150   -3.6860   22.5040 C   0  0  0  0  0  0  0  0  0  0  0  0
    6.8830   -2.6850   21.6970 C   0  0  0  0  0  0  0  0  0  0  0  0
    6.6500   -1.3280   21.9820 C   0  0  0  0  0  0  0  0  0  0  0  0
    7.2320   -0.3200   21.1670 N   0  0  0  0  0  0  0  0  0  0  0  0
    8.5480    0.1230   21.2750 C   0  0  0  0  0  0  0  0  0  0  0  0
    8.9930    0.9810   20.5410 O   0  0  0  0  0  0  0  0  0  0  0  0
    9.3300   -0.4850   22.2270 N   0  0  0  0  0  0  0  0  0  0  0  0
   10.7080   -0.2280   22.4070 C   0  0  0  0  0  0  0  0  0  0  0  0
   11.6530   -1.2050   22.0590 C   0  0  0  0  0  0  0  0  0  0  0  0
   13.0260   -0.9140   22.1250 C   0  0  0  0  0  0  0  0  0  0  0  0
   13.4540    0.3470   22.5740 C   0  0  0  0  0  0  0  0  0  0  0  0
   12.5090    1.3180   22.9410 C   0  0  0  0  0  0  0  0  0  0  0  0
   11.1380    1.0330   22.8480 C   0  0  0  0  0  0  0  0  0  0  0  0
    6.3990    0.1970   20.1320 C   0  0  0  0  0  0  0  0  0  0  0  0
    5.3730    1.1140   20.4120 C   0  0  0  0  0  0  0  0  0  0  0  0
    4.6910    1.6890   19.3280 C   0  0  0  0  0  0  0  0  0  0  0  0
    5.0410    1.3320   18.0170 C   0  0  0  0  0  0  0  0  0  0  0  0
    6.0070    0.4290   17.7350 N   0  0  0  0  0  0  0  0  0  0  0  0
    6.6860   -0.0900   18.7810 C   0  0  0  0  0  0  0  0  0  0  0  0
    5.8620   -0.9730   23.0900 C   0  0  0  0  0  0  0  0  0  0  0  0
    5.3000   -1.9740   23.9010 C   0  0  0  0  0  0  0  0  0  0  0  0
  1  2  1  0
  2  3  1  0
  3 24  2  0
  3  4  1  0
  4  5  2  0
  5  6  1  0
  6  7  1  0
  6 23  2  0
  7 17  1  0
  7  8  1  0
  8  9  2  0
  8 10  1  0
 10 11  1  0
 11 12  2  0
 11 16  1  0
 12 13  1  0
 13 14  2  0
 14 15  1  0
 15 16  2  0
 17 18  2  0
 17 22  1  0
 18 19  1  0
 19 20  2  0
 20 21  1  0
 21 22  2  0
 23 24  1  0
M  END
>  <original SMILES>  (20) 
COc1ccc(N(C(=O)Nc2ccccc2)c2cccnc2)cc1

>  <AutoDock Predicted Affinity>  (20) 
-6.993882

>  <ref_pdb>  (20) 
x0434_0

>  <ref_mols>  (20) 
x0434_0

>  <creator>  (20) 
Will Poole

>  <energy minimised>  (20) 
True

$$$$
WPC0280_minimised.pdb
     RDKit          3D

 20 21  0  0  0  0  0  0  0  0999 V2000
    4.7400   -3.7840   23.1530 N   0  0  0  0  0  0  0  0  0  0  0  0
    5.3810   -2.8330   23.0340 C   0  0  0  0  0  0  0  0  0  0  0  0
    6.1690   -1.6240   22.7830 C   0  0  0  0  0  0  0  0  0  0  0  0
    6.9490   -1.7650   21.4610 C   0  0  0  0  0  0  0  0  0  0  0  0
    7.4090   -0.4730   20.9250 N   0  0  0  0  0  0  0  0  0  0  0  0
    8.6620    0.0760   21.1850 C   0  0  0  0  0  0  0  0  0  0  0  0
    9.0170    1.1100   20.6590 O   0  0  0  0  0  0  0  0  0  0  0  0
    9.5020   -0.6240   22.0200 N   0  0  0  0  0  0  0  0  0  0  0  0
   10.8570   -0.2990   22.2610 C   0  0  0  0  0  0  0  0  0  0  0  0
   11.8530   -1.2360   21.9550 C   0  0  0  0  0  0  0  0  0  0  0  0
   13.2100   -0.9020   22.0970 C   0  0  0  0  0  0  0  0  0  0  0  0
   13.5700    0.3650   22.5860 C   0  0  0  0  0  0  0  0  0  0  0  0
   12.5730    1.2970   22.9170 C   0  0  0  0  0  0  0  0  0  0  0  0
   11.2190    0.9680   22.7460 C   0  0  0  0  0  0  0  0  0  0  0  0
    6.5530    0.1410   19.9650 C   0  0  0  0  0  0  0  0  0  0  0  0
    5.5720    1.0650   20.3560 C   0  0  0  0  0  0  0  0  0  0  0  0
    4.8190    1.6910   19.3490 C   0  0  0  0  0  0  0  0  0  0  0  0
    5.0580    1.3730   18.0030 C   0  0  0  0  0  0  0  0  0  0  0  0
    5.9830    0.4640   17.6180 N   0  0  0  0  0  0  0  0  0  0  0  0
    6.7260   -0.1080   18.5870 C   0  0  0  0  0  0  0  0  0  0  0  0
  1  2  3  0
  2  3  1  0
  3  4  1  0
  4  5  1  0
  5  6  1  0
  5 15  1  0
  6  8  1  0
  6  7  2  0
  8  9  1  0
  9 10  2  0
  9 14  1  0
 10 11  1  0
 11 12  2  0
 12 13  1  0
 13 14  2  0
 15 16  2  0
 15 20  1  0
 16 17  1  0
 17 18  2  0
 18 19  1  0
 19 20  2  0
M  END
>  <original SMILES>  (21) 
N#CCCN(C(=O)Nc1ccccc1)c1cccnc1

>  <AutoDock Predicted Affinity>  (21) 
-5.964688

>  <ref_pdb>  (21) 
x0434_0

>  <ref_mols>  (21) 
x0434_0

>  <creator>  (21) 
Will Poole

>  <energy minimised>  (21) 
True

$$$$
WPC0258_minimised.pdb
     RDKit          3D

 23 25  0  0  0  0  0  0  0  0999 V2000
    9.2250    0.9530   20.6490 O   0  0  0  0  0  0  0  0  0  0  0  0
    8.8280    0.1030   21.4180 C   0  0  0  0  0  0  0  0  0  0  0  0
    9.6830   -0.4860   22.3160 N   0  0  0  0  0  0  0  0  0  0  0  0
   11.0520   -0.1820   22.4420 C   0  0  0  0  0  0  0  0  0  0  0  0
   12.0130   -1.1260   22.0560 C   0  0  0  0  0  0  0  0  0  0  0  0
   13.3790   -0.7980   22.0970 C   0  0  0  0  0  0  0  0  0  0  0  0
   13.7780    0.4710   22.5490 C   0  0  0  0  0  0  0  0  0  0  0  0
   12.8140    1.4100   22.9480 C   0  0  0  0  0  0  0  0  0  0  0  0
   11.4510    1.0850   22.8900 C   0  0  0  0  0  0  0  0  0  0  0  0
    7.5020   -0.3290   21.3840 N   0  0  0  0  0  0  0  0  0  0  0  0
    6.9420   -1.3540   22.2890 C   0  0  0  0  0  0  0  0  0  0  0  0
    7.2960   -1.2020   23.7660 C   0  0  0  0  0  0  0  0  0  0  0  0
    7.7490   -2.3180   24.4960 C   0  0  0  0  0  0  0  0  0  0  0  0
    8.1760   -2.1720   25.8270 C   0  0  0  0  0  0  0  0  0  0  0  0
    8.1600   -0.9060   26.4340 C   0  0  0  0  0  0  0  0  0  0  0  0
    7.6990    0.2080   25.7160 C   0  0  0  0  0  0  0  0  0  0  0  0
    7.2610    0.0620   24.3890 C   0  0  0  0  0  0  0  0  0  0  0  0
    6.6530    0.1560   20.3430 C   0  0  0  0  0  0  0  0  0  0  0  0
    5.6110    1.0530   20.6240 C   0  0  0  0  0  0  0  0  0  0  0  0
    4.9160    1.6120   19.5390 C   0  0  0  0  0  0  0  0  0  0  0  0
    5.2620    1.2520   18.2260 C   0  0  0  0  0  0  0  0  0  0  0  0
    6.2360    0.3570   17.9450 N   0  0  0  0  0  0  0  0  0  0  0  0
    6.9330   -0.1410   18.9890 C   0  0  0  0  0  0  0  0  0  0  0  0
  1  2  2  0
  2  3  1  0
  2 10  1  0
  3  4  1  0
  4  5  2  0
  4  9  1  0
  5  6  1  0
  6  7  2  0
  7  8  1  0
  8  9  2  0
 10 18  1  0
 10 11  1  0
 11 12  1  0
 12 13  2  0
 12 17  1  0
 13 14  1  0
 14 15  2  0
 15 16  1  0
 16 17  2  0
 18 19  2  0
 18 23  1  0
 19 20  1  0
 20 21  2  0
 21 22  1  0
 22 23  2  0
M  END
>  <original SMILES>  (22) 
O=C(Nc1ccccc1)N(Cc1ccccc1)c1cccnc1

>  <AutoDock Predicted Affinity>  (22) 
-6.426827

>  <ref_pdb>  (22) 
x0434_0

>  <ref_mols>  (22) 
x0434_0

>  <creator>  (22) 
Will Poole

>  <energy minimised>  (22) 
True

$$$$
WPC0277_minimised.pdb
     RDKit          3D

 22 24  0  0  0  0  0  0  0  0999 V2000
    9.1290    0.8600   20.5490 O   0  0  0  0  0  0  0  0  0  0  0  0
    8.6880    0.0750   21.3610 C   0  0  0  0  0  0  0  0  0  0  0  0
    9.5020   -0.4840   22.3140 N   0  0  0  0  0  0  0  0  0  0  0  0
   10.8780   -0.2050   22.4490 C   0  0  0  0  0  0  0  0  0  0  0  0
   11.8260   -1.1540   22.0420 C   0  0  0  0  0  0  0  0  0  0  0  0
   13.1960   -0.8450   22.0840 C   0  0  0  0  0  0  0  0  0  0  0  0
   13.6140    0.4100   22.5580 C   0  0  0  0  0  0  0  0  0  0  0  0
   12.6640    1.3550   22.9760 C   0  0  0  0  0  0  0  0  0  0  0  0
   11.2960    1.0490   22.9180 C   0  0  0  0  0  0  0  0  0  0  0  0
    7.3480   -0.3040   21.3300 N   0  0  0  0  0  0  0  0  0  0  0  0
    6.7590   -1.2730   22.2730 C   0  0  0  0  0  0  0  0  0  0  0  0
    6.9550   -0.9550   23.7340 C   0  0  0  0  0  0  0  0  0  0  0  0
    7.0590    0.3180   24.2400 C   0  0  0  0  0  0  0  0  0  0  0  0
    7.3850    0.3230   25.6270 C   0  0  0  0  0  0  0  0  0  0  0  0
    7.5030   -0.9340   26.1670 C   0  0  0  0  0  0  0  0  0  0  0  0
    7.2030   -2.1820   24.9660 S   0  0  0  0  0  0  0  0  0  0  0  0
    6.5140    0.1720   20.2730 C   0  0  0  0  0  0  0  0  0  0  0  0
    5.4660    1.0670   20.5330 C   0  0  0  0  0  0  0  0  0  0  0  0
    4.7770    1.6100   19.4360 C   0  0  0  0  0  0  0  0  0  0  0  0
    5.1390    1.2380   18.1310 C   0  0  0  0  0  0  0  0  0  0  0  0
    6.1180    0.3430   17.8690 N   0  0  0  0  0  0  0  0  0  0  0  0
    6.8060   -0.1420   18.9250 C   0  0  0  0  0  0  0  0  0  0  0  0
  1  2  2  0
  2  3  1  0
  2 10  1  0
  3  4  1  0
  4  5  2  0
  4  9  1  0
  5  6  1  0
  6  7  2  0
  7  8  1  0
  8  9  2  0
 10 17  1  0
 10 11  1  0
 11 12  1  0
 12 13  2  0
 12 16  1  0
 13 14  1  0
 14 15  2  0
 15 16  1  0
 17 18  2  0
 17 22  1  0
 18 19  1  0
 19 20  2  0
 20 21  1  0
 21 22  2  0
M  END
>  <original SMILES>  (23) 
O=C(Nc1ccccc1)N(Cc1cccs1)c1cccnc1

>  <AutoDock Predicted Affinity>  (23) 
-6.147977

>  <ref_pdb>  (23) 
x0434_0

>  <ref_mols>  (23) 
x0434_0

>  <creator>  (23) 
Will Poole

>  <energy minimised>  (23) 
True

$$$$
WPC0289_minimised.pdb
     RDKit          3D

 17 18  0  0  0  0  0  0  0  0999 V2000
    9.0340    1.1430   20.6540 O   0  0  0  0  0  0  0  0  0  0  0  0
    8.6430    0.1250   21.1910 C   0  0  0  0  0  0  0  0  0  0  0  0
    9.4400   -0.5910   22.0510 N   0  0  0  0  0  0  0  0  0  0  0  0
   10.8010   -0.3080   22.3060 C   0  0  0  0  0  0  0  0  0  0  0  0
   11.7780   -1.2630   21.9910 C   0  0  0  0  0  0  0  0  0  0  0  0
   13.1420   -0.9510   22.1210 C   0  0  0  0  0  0  0  0  0  0  0  0
   13.5280    0.3100   22.6060 C   0  0  0  0  0  0  0  0  0  0  0  0
   12.5500    1.2570   22.9490 C   0  0  0  0  0  0  0  0  0  0  0  0
   11.1900    0.9510   22.7910 C   0  0  0  0  0  0  0  0  0  0  0  0
    7.3770   -0.4080   20.9270 N   0  0  0  0  0  0  0  0  0  0  0  0
    6.8920   -1.5470   21.6220 O   0  0  0  0  0  0  0  0  0  0  0  0
    6.5040    0.1360   19.9520 C   0  0  0  0  0  0  0  0  0  0  0  0
    5.5970    1.1510   20.2900 C   0  0  0  0  0  0  0  0  0  0  0  0
    4.8740    1.7570   19.2520 C   0  0  0  0  0  0  0  0  0  0  0  0
    5.0950    1.3520   17.9270 C   0  0  0  0  0  0  0  0  0  0  0  0
    5.9510    0.3610   17.5970 N   0  0  0  0  0  0  0  0  0  0  0  0
    6.6530   -0.2130   18.5970 C   0  0  0  0  0  0  0  0  0  0  0  0
  1  2  2  0
  2  3  1  0
  2 10  1  0
  3  4  1  0
  4  5  2  0
  4  9  1  0
  5  6  1  0
  6  7  2  0
  7  8  1  0
  8  9  2  0
 10 11  1  0
 10 12  1  0
 12 13  2  0
 12 17  1  0
 13 14  1  0
 14 15  2  0
 15 16  1  0
 16 17  2  0
M  END
>  <original SMILES>  (24) 
O=C(Nc1ccccc1)N(O)c1cccnc1

>  <AutoDock Predicted Affinity>  (24) 
-5.849325

>  <ref_pdb>  (24) 
x0434_0

>  <ref_mols>  (24) 
x0434_0

>  <creator>  (24) 
Will Poole

>  <energy minimised>  (24) 
True

$$$$
WPC0294_minimised.pdb
     RDKit          3D

 23 25  0  0  0  0  0  0  0  0999 V2000
    8.9380    0.8320   20.4550 O   0  0  0  0  0  0  0  0  0  0  0  0
    8.4350    0.1120   21.2920 C   0  0  0  0  0  0  0  0  0  0  0  0
    9.1790   -0.4200   22.3170 N   0  0  0  0  0  0  0  0  0  0  0  0
   10.5660   -0.2080   22.4770 C   0  0  0  0  0  0  0  0  0  0  0  0
   11.4780   -1.2040   22.0970 C   0  0  0  0  0  0  0  0  0  0  0  0
   12.8600   -0.9510   22.1460 C   0  0  0  0  0  0  0  0  0  0  0  0
   13.3290    0.2930   22.5990 C   0  0  0  0  0  0  0  0  0  0  0  0
   12.4170    1.2840   22.9940 C   0  0  0  0  0  0  0  0  0  0  0  0
   11.0370    1.0370   22.9250 C   0  0  0  0  0  0  0  0  0  0  0  0
    7.0890   -0.2370   21.2380 N   0  0  0  0  0  0  0  0  0  0  0  0
    6.4370   -1.0750   22.1800 C   0  0  0  0  0  0  0  0  0  0  0  0
    6.5290   -2.4740   22.0640 C   0  0  0  0  0  0  0  0  0  0  0  0
    5.8860   -3.3050   22.9980 C   0  0  0  0  0  0  0  0  0  0  0  0
    5.1510   -2.7320   24.0480 C   0  0  0  0  0  0  0  0  0  0  0  0
    4.5100   -3.5240   24.9300 F   0  0  0  0  0  0  0  0  0  0  0  0
    5.0770   -1.3380   24.1820 C   0  0  0  0  0  0  0  0  0  0  0  0
    5.7200   -0.5090   23.2490 C   0  0  0  0  0  0  0  0  0  0  0  0
    6.2830    0.2420   20.1620 C   0  0  0  0  0  0  0  0  0  0  0  0
    5.2940    1.2170   20.3720 C   0  0  0  0  0  0  0  0  0  0  0  0
    4.6600    1.7670   19.2480 C   0  0  0  0  0  0  0  0  0  0  0  0
    5.0290    1.3400   17.9640 C   0  0  0  0  0  0  0  0  0  0  0  0
    5.9550    0.3800   17.7470 N   0  0  0  0  0  0  0  0  0  0  0  0
    6.5760   -0.1310   18.8310 C   0  0  0  0  0  0  0  0  0  0  0  0
  1  2  2  0
  2  3  1  0
  2 10  1  0
  3  4  1  0
  4  5  2  0
  4  9  1  0
  5  6  1  0
  6  7  2  0
  7  8  1  0
  8  9  2  0
 10 18  1  0
 10 11  1  0
 11 12  2  0
 11 17  1  0
 12 13  1  0
 13 14  2  0
 14 15  1  0
 14 16  1  0
 16 17  2  0
 18 19  2  0
 18 23  1  0
 19 20  1  0
 20 21  2  0
 21 22  1  0
 22 23  2  0
M  END
>  <original SMILES>  (25) 
O=C(Nc1ccccc1)N(c1ccc(F)cc1)c1cccnc1

>  <AutoDock Predicted Affinity>  (25) 
-6.70081

>  <ref_pdb>  (25) 
x0434_0

>  <ref_mols>  (25) 
x0434_0

>  <creator>  (25) 
Will Poole

>  <energy minimised>  (25) 
True

$$$$
WPC0291_minimised.pdb
     RDKit          3D

 22 24  0  0  0  0  0  0  0  0999 V2000
    8.9050    0.9460   20.5000 O   0  0  0  0  0  0  0  0  0  0  0  0
    8.4620    0.1070   21.2580 C   0  0  0  0  0  0  0  0  0  0  0  0
    9.2470   -0.4710   22.2260 N   0  0  0  0  0  0  0  0  0  0  0  0
   10.6250   -0.2090   22.3980 C   0  0  0  0  0  0  0  0  0  0  0  0
   11.5720   -1.1840   22.0500 C   0  0  0  0  0  0  0  0  0  0  0  0
   12.9450   -0.8910   22.1140 C   0  0  0  0  0  0  0  0  0  0  0  0
   13.3720    0.3700   22.5620 C   0  0  0  0  0  0  0  0  0  0  0  0
   12.4260    1.3400   22.9280 C   0  0  0  0  0  0  0  0  0  0  0  0
   11.0540    1.0540   22.8360 C   0  0  0  0  0  0  0  0  0  0  0  0
    7.1480   -0.3450   21.1610 N   0  0  0  0  0  0  0  0  0  0  0  0
    6.5910   -1.3650   21.9780 C   0  0  0  0  0  0  0  0  0  0  0  0
    6.9280   -2.7110   21.7500 C   0  0  0  0  0  0  0  0  0  0  0  0
    6.4230   -3.7230   22.5830 C   0  0  0  0  0  0  0  0  0  0  0  0
    5.5790   -3.3890   23.6540 C   0  0  0  0  0  0  0  0  0  0  0  0
    5.2480   -2.0450   23.8940 C   0  0  0  0  0  0  0  0  0  0  0  0
    5.7490   -1.0350   23.0540 C   0  0  0  0  0  0  0  0  0  0  0  0
    6.3080    0.1590   20.1230 C   0  0  0  0  0  0  0  0  0  0  0  0
    5.2790    1.0770   20.3940 C   0  0  0  0  0  0  0  0  0  0  0  0
    4.6110    1.6580   19.3040 C   0  0  0  0  0  0  0  0  0  0  0  0
    4.9740    1.3030   17.9960 C   0  0  0  0  0  0  0  0  0  0  0  0
    5.9360    0.3940   17.7220 N   0  0  0  0  0  0  0  0  0  0  0  0
    6.6060   -0.1240   18.7730 C   0  0  0  0  0  0  0  0  0  0  0  0
  1  2  2  0
  2  3  1  0
  2 10  1  0
  3  4  1  0
  4  5  2  0
  4  9  1  0
  5  6  1  0
  6  7  2  0
  7  8  1  0
  8  9  2  0
 10 17  1  0
 10 11  1  0
 11 12  2  0
 11 16  1  0
 12 13  1  0
 13 14  2  0
 14 15  1  0
 15 16  2  0
 17 18  2  0
 17 22  1  0
 18 19  1  0
 19 20  2  0
 20 21  1  0
 21 22  2  0
M  END
>  <original SMILES>  (26) 
O=C(Nc1ccccc1)N(c1ccccc1)c1cccnc1

>  <AutoDock Predicted Affinity>  (26) 
-6.72452

>  <ref_pdb>  (26) 
x0434_0

>  <ref_mols>  (26) 
x0434_0

>  <creator>  (26) 
Will Poole

>  <energy minimised>  (26) 
True

$$$$
WPC0019_minimised.pdb
     RDKit          3D

 23 24  0  0  0  0  0  0  0  0999 V2000
    5.1180    4.3590   22.1210 C   0  0  0  0  0  0  0  0  0  0  0  0
    6.4320    4.2370   21.8880 C   0  0  0  0  0  0  0  0  0  0  0  0
    7.3470    3.1950   22.4920 C   0  0  0  0  0  0  0  0  0  0  0  0
    6.8730    1.9180   22.0550 O   0  0  0  0  0  0  0  0  0  0  0  0
    5.8230    1.3410   22.6930 C   0  0  0  0  0  0  0  0  0  0  0  0
    5.5150    1.4990   23.8570 O   0  0  0  0  0  0  0  0  0  0  0  0
    5.1030    0.5410   21.8480 N   0  0  0  0  0  0  0  0  0  0  0  0
    5.3080    0.3650   20.4590 C   0  0  0  0  0  0  0  0  0  0  0  0
    4.5370    1.0750   19.5280 C   0  0  0  0  0  0  0  0  0  0  0  0
    4.8510    0.9880   18.1630 C   0  0  0  0  0  0  0  0  0  0  0  0
    5.8550    0.2190   17.6900 N   0  0  0  0  0  0  0  0  0  0  0  0
    6.6240   -0.4220   18.5950 C   0  0  0  0  0  0  0  0  0  0  0  0
    6.3870   -0.3940   19.9850 C   0  0  0  0  0  0  0  0  0  0  0  0
    7.3320   -0.9220   20.9100 N   0  0  0  0  0  0  0  0  0  0  0  0
    8.6060   -0.4250   20.9880 C   0  0  0  0  0  0  0  0  0  0  0  0
    9.0600    0.2940   20.1250 O   0  0  0  0  0  0  0  0  0  0  0  0
    9.3040   -0.7700   22.1140 N   0  0  0  0  0  0  0  0  0  0  0  0
   10.5680   -0.2390   22.4420 C   0  0  0  0  0  0  0  0  0  0  0  0
   11.7290   -0.7530   21.8460 C   0  0  0  0  0  0  0  0  0  0  0  0
   12.9790   -0.1730   22.1200 C   0  0  0  0  0  0  0  0  0  0  0  0
   13.0630    0.9280   22.9880 C   0  0  0  0  0  0  0  0  0  0  0  0
   11.8970    1.4510   23.5720 C   0  0  0  0  0  0  0  0  0  0  0  0
   10.6510    0.8620   23.3060 C   0  0  0  0  0  0  0  0  0  0  0  0
  1  2  2  0
  2  3  1  0
  3  4  1  0
  4  5  1  0
  5  6  2  0
  5  7  1  0
  7  8  1  0
  8  9  2  0
  8 13  1  0
  9 10  1  0
 10 11  2  0
 11 12  1  0
 12 13  2  0
 13 14  1  0
 14 15  1  0
 15 16  2  0
 15 17  1  0
 17 18  1  0
 18 19  2  0
 18 23  1  0
 19 20  1  0
 20 21  2  0
 21 22  1  0
 22 23  2  0
M  END
>  <original SMILES>  (27) 
C=CCOC(=O)Nc1ccncc1NC(=O)Nc1ccccc1

>  <AutoDock Predicted Affinity>  (27) 
-5.486976

>  <ref_pdb>  (27) 
x0434_0

>  <ref_mols>  (27) 
x0434_0

>  <creator>  (27) 
Will Poole

>  <energy minimised>  (27) 
True

$$$$
WPC0149_minimised.pdb
     RDKit          3D

 23 24  0  0  0  0  0  0  0  0999 V2000
    8.0380    5.0450   21.9580 C   0  0  0  0  0  0  0  0  0  0  0  0
    6.9100    4.0350   22.1320 C   0  0  0  0  0  0  0  0  0  0  0  0
    5.7550    4.3740   22.2900 O   0  0  0  0  0  0  0  0  0  0  0  0
    7.3190    2.5850   22.1850 C   0  0  0  0  0  0  0  0  0  0  0  0
    6.1660    1.7530   22.6890 C   0  0  0  0  0  0  0  0  0  0  0  0
    6.0040    1.5110   23.8700 O   0  0  0  0  0  0  0  0  0  0  0  0
    5.2860    1.2180   21.7820 N   0  0  0  0  0  0  0  0  0  0  0  0
    5.4880    0.9960   20.4030 C   0  0  0  0  0  0  0  0  0  0  0  0
    4.8590    1.7940   19.4410 C   0  0  0  0  0  0  0  0  0  0  0  0
    5.1200    1.5660   18.0810 C   0  0  0  0  0  0  0  0  0  0  0  0
    5.9440    0.5850   17.6480 N   0  0  0  0  0  0  0  0  0  0  0  0
    6.5740   -0.1570   18.5820 C   0  0  0  0  0  0  0  0  0  0  0  0
    6.3710   -0.0030   19.9680 C   0  0  0  0  0  0  0  0  0  0  0  0
    7.2030   -0.6770   20.9080 N   0  0  0  0  0  0  0  0  0  0  0  0
    8.5290   -0.3580   21.0290 C   0  0  0  0  0  0  0  0  0  0  0  0
    9.0680    0.3560   20.2090 O   0  0  0  0  0  0  0  0  0  0  0  0
    9.1660   -0.8170   22.1500 N   0  0  0  0  0  0  0  0  0  0  0  0
   10.4900   -0.4510   22.4780 C   0  0  0  0  0  0  0  0  0  0  0  0
   11.5670   -1.0420   21.8000 C   0  0  0  0  0  0  0  0  0  0  0  0
   12.8780   -0.5820   22.0080 C   0  0  0  0  0  0  0  0  0  0  0  0
   13.1100    0.4820   22.8950 C   0  0  0  0  0  0  0  0  0  0  0  0
   12.0330    1.0700   23.5780 C   0  0  0  0  0  0  0  0  0  0  0  0
   10.7260    0.5960   23.3810 C   0  0  0  0  0  0  0  0  0  0  0  0
  1  2  1  0
  2  3  2  0
  2  4  1  0
  4  5  1  0
  5  6  2  0
  5  7  1  0
  7  8  1  0
  8  9  2  0
  8 13  1  0
  9 10  1  0
 10 11  2  0
 11 12  1  0
 12 13  2  0
 13 14  1  0
 14 15  1  0
 15 16  2  0
 15 17  1  0
 17 18  1  0
 18 19  2  0
 18 23  1  0
 19 20  1  0
 20 21  2  0
 21 22  1  0
 22 23  2  0
M  END
>  <original SMILES>  (28) 
CC(=O)CC(=O)Nc1ccncc1NC(=O)Nc1ccccc1

>  <AutoDock Predicted Affinity>  (28) 
-5.630566

>  <ref_pdb>  (28) 
x0434_0

>  <ref_mols>  (28) 
x0434_0

>  <creator>  (28) 
Will Poole

>  <energy minimised>  (28) 
True

$$$$
WPC0184_minimised.pdb
     RDKit          3D

 23 24  0  0  0  0  0  0  0  0999 V2000
    6.2700    0.5190   26.2750 C   0  0  0  0  0  0  0  0  0  0  0  0
    6.2350   -0.0830   24.8770 C   0  0  0  0  0  0  0  0  0  0  0  0
    7.2560   -0.3210   24.2520 O   0  0  0  0  0  0  0  0  0  0  0  0
    4.8540   -0.3900   24.2850 C   0  0  0  0  0  0  0  0  0  0  0  0
    4.8970   -0.3400   22.8340 O   0  0  0  0  0  0  0  0  0  0  0  0
    4.8700    0.8800   22.2070 C   0  0  0  0  0  0  0  0  0  0  0  0
    4.3640    1.8580   22.7260 O   0  0  0  0  0  0  0  0  0  0  0  0
    5.1550    0.7520   20.7370 C   0  0  0  0  0  0  0  0  0  0  0  0
    4.4090    1.4560   19.7690 C   0  0  0  0  0  0  0  0  0  0  0  0
    4.6960    1.2890   18.4020 C   0  0  0  0  0  0  0  0  0  0  0  0
    5.6500    0.4450   17.9510 N   0  0  0  0  0  0  0  0  0  0  0  0
    6.4220   -0.1630   18.8770 C   0  0  0  0  0  0  0  0  0  0  0  0
    6.2360   -0.0230   20.2740 C   0  0  0  0  0  0  0  0  0  0  0  0
    7.2100   -0.4910   21.2050 N   0  0  0  0  0  0  0  0  0  0  0  0
    8.5530   -0.2580   21.0740 C   0  0  0  0  0  0  0  0  0  0  0  0
    9.0310    0.1220   20.0280 O   0  0  0  0  0  0  0  0  0  0  0  0
    9.2810   -0.4370   22.2180 N   0  0  0  0  0  0  0  0  0  0  0  0
   10.6570   -0.1520   22.3500 C   0  0  0  0  0  0  0  0  0  0  0  0
   11.6140   -1.0340   21.8260 C   0  0  0  0  0  0  0  0  0  0  0  0
   12.9830   -0.7280   21.9150 C   0  0  0  0  0  0  0  0  0  0  0  0
   13.3920    0.4610   22.5390 C   0  0  0  0  0  0  0  0  0  0  0  0
   12.4340    1.3450   23.0610 C   0  0  0  0  0  0  0  0  0  0  0  0
   11.0670    1.0360   22.9710 C   0  0  0  0  0  0  0  0  0  0  0  0
  1  2  1  0
  2  3  2  0
  2  4  1  0
  4  5  1  0
  5  6  1  0
  6  7  2  0
  6  8  1  0
  8  9  2  0
  8 13  1  0
  9 10  1  0
 10 11  2  0
 11 12  1  0
 12 13  2  0
 13 14  1  0
 14 15  1  0
 15 16  2  0
 15 17  1  0
 17 18  1  0
 18 19  2  0
 18 23  1  0
 19 20  1  0
 20 21  2  0
 21 22  1  0
 22 23  2  0
M  END
>  <original SMILES>  (29) 
CC(=O)COC(=O)c1ccncc1NC(=O)Nc1ccccc1

>  <AutoDock Predicted Affinity>  (29) 
-5.248277

>  <ref_pdb>  (29) 
x0434_0

>  <ref_mols>  (29) 
x0434_0

>  <creator>  (29) 
Will Poole

>  <energy minimised>  (29) 
True

$$$$
WPC0155_minimised.pdb
     RDKit          3D

 20 21  0  0  0  0  0  0  0  0999 V2000
    3.9700    3.7440   22.8450 C   0  0  0  0  0  0  0  0  0  0  0  0
    4.4430    2.4900   22.1420 C   0  0  0  0  0  0  0  0  0  0  0  0
    4.5560    1.4110   22.7060 O   0  0  0  0  0  0  0  0  0  0  0  0
    4.7020    2.6800   20.8150 N   0  0  0  0  0  0  0  0  0  0  0  0
    4.9510    1.7480   19.7900 C   0  0  0  0  0  0  0  0  0  0  0  0
    4.3250    2.0090   18.5750 C   0  0  0  0  0  0  0  0  0  0  0  0
    4.7070    1.3010   17.4410 C   0  0  0  0  0  0  0  0  0  0  0  0
    5.5910    0.2860   17.4640 N   0  0  0  0  0  0  0  0  0  0  0  0
    6.1700    0.0050   18.6510 C   0  0  0  0  0  0  0  0  0  0  0  0
    5.9160    0.7280   19.8400 C   0  0  0  0  0  0  0  0  0  0  0  0
    6.7060    0.5400   21.0090 N   0  0  0  0  0  0  0  0  0  0  0  0
    8.0710    0.3910   21.0060 C   0  0  0  0  0  0  0  0  0  0  0  0
    8.6960    0.2300   19.9790 O   0  0  0  0  0  0  0  0  0  0  0  0
    8.6740    0.4700   22.2320 N   0  0  0  0  0  0  0  0  0  0  0  0
   10.0720    0.4670   22.4330 C   0  0  0  0  0  0  0  0  0  0  0  0
   10.8660   -0.5820   21.9360 C   0  0  0  0  0  0  0  0  0  0  0  0
   12.2620   -0.5410   22.0760 C   0  0  0  0  0  0  0  0  0  0  0  0
   12.8680    0.5510   22.7180 C   0  0  0  0  0  0  0  0  0  0  0  0
   12.0760    1.5990   23.2140 C   0  0  0  0  0  0  0  0  0  0  0  0
   10.6800    1.5540   23.0780 C   0  0  0  0  0  0  0  0  0  0  0  0
  1  2  1  0
  2  3  2  0
  2  4  1  0
  4  5  1  0
  5  6  2  0
  5 10  1  0
  6  7  1  0
  7  8  2  0
  8  9  1  0
  9 10  2  0
 10 11  1  0
 11 12  1  0
 12 13  2  0
 12 14  1  0
 14 15  1  0
 15 16  2  0
 15 20  1  0
 16 17  1  0
 17 18  2  0
 18 19  1  0
 19 20  2  0
M  END
>  <original SMILES>  (30) 
CC(=O)Nc1ccncc1NC(=O)Nc1ccccc1

>  <AutoDock Predicted Affinity>  (30) 
-5.846225

>  <ref_pdb>  (30) 
x0434_0

>  <ref_mols>  (30) 
x0434_0

>  <creator>  (30) 
Will Poole

>  <energy minimised>  (30) 
True

$$$$
WPC0136_minimised.pdb
     RDKit          3D

 23 24  0  0  0  0  0  0  0  0999 V2000
    2.2970    3.9740   20.9820 C   0  0  0  0  0  0  0  0  0  0  0  0
    3.2810    3.3130   21.9850 C   0  0  0  0  0  0  0  0  0  0  0  0
    4.6580    4.0250   21.8820 C   0  0  0  0  0  0  0  0  0  0  0  0
    2.7400    3.5040   23.4270 C   0  0  0  0  0  0  0  0  0  0  0  0
    3.3750    1.7910   21.7200 C   0  0  0  0  0  0  0  0  0  0  0  0
    2.4130    1.0450   21.8300 O   0  0  0  0  0  0  0  0  0  0  0  0
    4.6070    1.2340   21.4690 N   0  0  0  0  0  0  0  0  0  0  0  0
    5.2100    1.0830   20.1950 C   0  0  0  0  0  0  0  0  0  0  0  0
    4.6900    1.6970   19.0470 C   0  0  0  0  0  0  0  0  0  0  0  0
    5.2400    1.4160   17.7920 C   0  0  0  0  0  0  0  0  0  0  0  0
    6.2640    0.5600   17.6160 N   0  0  0  0  0  0  0  0  0  0  0  0
    6.8230    0.0380   18.7260 C   0  0  0  0  0  0  0  0  0  0  0  0
    6.3420    0.2660   20.0340 C   0  0  0  0  0  0  0  0  0  0  0  0
    7.0950   -0.1920   21.1540 N   0  0  0  0  0  0  0  0  0  0  0  0
    8.4160    0.1440   21.3170 C   0  0  0  0  0  0  0  0  0  0  0  0
    8.9890    0.8450   20.5110 O   0  0  0  0  0  0  0  0  0  0  0  0
    9.0570   -0.3800   22.4060 N   0  0  0  0  0  0  0  0  0  0  0  0
   10.4420   -0.2000   22.6150 C   0  0  0  0  0  0  0  0  0  0  0  0
   11.3450   -1.1980   22.2160 C   0  0  0  0  0  0  0  0  0  0  0  0
   12.7280   -0.9500   22.2470 C   0  0  0  0  0  0  0  0  0  0  0  0
   13.2090    0.2910   22.6970 C   0  0  0  0  0  0  0  0  0  0  0  0
   12.3070    1.2840   23.1100 C   0  0  0  0  0  0  0  0  0  0  0  0
   10.9250    1.0400   23.0620 C   0  0  0  0  0  0  0  0  0  0  0  0
  1  2  1  0
  2  3  1  0
  2  4  1  0
  2  5  1  0
  5  6  2  0
  5  7  1  0
  7  8  1  0
  8  9  2  0
  8 13  1  0
  9 10  1  0
 10 11  2  0
 11 12  1  0
 12 13  2  0
 13 14  1  0
 14 15  1  0
 15 16  2  0
 15 17  1  0
 17 18  1  0
 18 19  2  0
 18 23  1  0
 19 20  1  0
 20 21  2  0
 21 22  1  0
 22 23  2  0
M  END
>  <original SMILES>  (31) 
CC(C)(C)C(=O)Nc1ccncc1NC(=O)Nc1ccccc1

>  <AutoDock Predicted Affinity>  (31) 
-6.021245

>  <ref_pdb>  (31) 
x0434_0

>  <ref_mols>  (31) 
x0434_0

>  <creator>  (31) 
Will Poole

>  <energy minimised>  (31) 
True

$$$$
WPC0012_minimised.pdb
     RDKit          3D

 24 25  0  0  0  0  0  0  0  0999 V2000
    8.2490    4.9660   21.4720 C   0  0  0  0  0  0  0  0  0  0  0  0
    7.7710    3.5560   21.9030 C   0  0  0  0  0  0  0  0  0  0  0  0
    8.3040    3.3850   23.3260 C   0  0  0  0  0  0  0  0  0  0  0  0
    8.4060    2.3970   21.1080 C   0  0  0  0  0  0  0  0  0  0  0  0
    6.2120    3.5300   21.8020 C   0  0  0  0  0  0  0  0  0  0  0  0
    5.4930    2.2640   22.2810 C   0  0  0  0  0  0  0  0  0  0  0  0
    5.2650    2.0240   23.4520 O   0  0  0  0  0  0  0  0  0  0  0  0
    5.0270    1.3320   21.3890 N   0  0  0  0  0  0  0  0  0  0  0  0
    5.3060    1.1450   20.0190 C   0  0  0  0  0  0  0  0  0  0  0  0
    4.8150    2.0150   19.0370 C   0  0  0  0  0  0  0  0  0  0  0  0
    5.1380    1.7800   17.6930 C   0  0  0  0  0  0  0  0  0  0  0  0
    5.8910    0.7300   17.2960 N   0  0  0  0  0  0  0  0  0  0  0  0
    6.3580   -0.1050   18.2450 C   0  0  0  0  0  0  0  0  0  0  0  0
    6.0780    0.0450   19.6150 C   0  0  0  0  0  0  0  0  0  0  0  0
    6.6830   -0.7920   20.5940 N   0  0  0  0  0  0  0  0  0  0  0  0
    8.0380   -0.8850   20.7340 C   0  0  0  0  0  0  0  0  0  0  0  0
    8.7840   -0.5850   19.8270 O   0  0  0  0  0  0  0  0  0  0  0  0
    8.4250   -1.2100   22.0080 N   0  0  0  0  0  0  0  0  0  0  0  0
    9.6180   -0.7760   22.6370 C   0  0  0  0  0  0  0  0  0  0  0  0
   10.8430   -0.6810   21.9510 C   0  0  0  0  0  0  0  0  0  0  0  0
   11.9590   -0.0930   22.5670 C   0  0  0  0  0  0  0  0  0  0  0  0
   11.8600    0.3850   23.8830 C   0  0  0  0  0  0  0  0  0  0  0  0
   10.6520    0.2570   24.5870 C   0  0  0  0  0  0  0  0  0  0  0  0
    9.5340   -0.3180   23.9620 C   0  0  0  0  0  0  0  0  0  0  0  0
  1  2  1  0
  2  3  1  0
  2  4  1  0
  2  5  1  0
  5  6  1  0
  6  7  2  0
  6  8  1  0
  8  9  1  0
  9 10  2  0
  9 14  1  0
 10 11  1  0
 11 12  2  0
 12 13  1  0
 13 14  2  0
 14 15  1  0
 15 16  1  0
 16 17  2  0
 16 18  1  0
 18 19  1  0
 19 20  2  0
 19 24  1  0
 20 21  1  0
 21 22  2  0
 22 23  1  0
 23 24  2  0
M  END
>  <original SMILES>  (32) 
CC(C)(C)CC(=O)Nc1ccncc1NC(=O)Nc1ccccc1

>  <AutoDock Predicted Affinity>  (32) 
-5.931053

>  <ref_pdb>  (32) 
x0434_0

>  <ref_mols>  (32) 
x0434_0

>  <creator>  (32) 
Will Poole

>  <energy minimised>  (32) 
True

$$$$
WPC0001_minimised.pdb
     RDKit          3D

 24 25  0  0  0  0  0  0  0  0999 V2000
    3.9940    4.0720   21.1730 C   0  0  0  0  0  0  0  0  0  0  0  0
    5.2860    4.0260   22.0130 C   0  0  0  0  0  0  0  0  0  0  0  0
    6.0040    2.6500   21.9810 C   0  0  0  0  0  0  0  0  0  0  0  0
    7.2970    2.5880   22.8380 C   0  0  0  0  0  0  0  0  0  0  0  0
    8.4270    3.5210   22.3740 C   0  0  0  0  0  0  0  0  0  0  0  0
    5.0700    1.5190   22.4370 C   0  0  0  0  0  0  0  0  0  0  0  0
    4.6020    1.4510   23.5610 O   0  0  0  0  0  0  0  0  0  0  0  0
    4.7860    0.5080   21.5550 N   0  0  0  0  0  0  0  0  0  0  0  0
    5.1970    0.3880   20.2110 C   0  0  0  0  0  0  0  0  0  0  0  0
    4.4840    1.0550   19.2080 C   0  0  0  0  0  0  0  0  0  0  0  0
    4.9670    1.0390   17.8930 C   0  0  0  0  0  0  0  0  0  0  0  0
    6.0770    0.3650   17.5350 N   0  0  0  0  0  0  0  0  0  0  0  0
    6.7860   -0.2390   18.5120 C   0  0  0  0  0  0  0  0  0  0  0  0
    6.3940   -0.2580   19.8670 C   0  0  0  0  0  0  0  0  0  0  0  0
    7.2760   -0.7510   20.8730 N   0  0  0  0  0  0  0  0  0  0  0  0
    8.5440   -0.2570   21.0480 C   0  0  0  0  0  0  0  0  0  0  0  0
    8.9840    0.6190   20.3330 O   0  0  0  0  0  0  0  0  0  0  0  0
    9.2600   -0.7980   22.0820 N   0  0  0  0  0  0  0  0  0  0  0  0
   10.5750   -0.3990   22.4050 C   0  0  0  0  0  0  0  0  0  0  0  0
   11.6680   -1.0270   21.7900 C   0  0  0  0  0  0  0  0  0  0  0  0
   12.9750   -0.5640   22.0210 C   0  0  0  0  0  0  0  0  0  0  0  0
   13.1850    0.5350   22.8690 C   0  0  0  0  0  0  0  0  0  0  0  0
   12.0910    1.1620   23.4870 C   0  0  0  0  0  0  0  0  0  0  0  0
   10.7890    0.6880   23.2640 C   0  0  0  0  0  0  0  0  0  0  0  0
  1  2  1  0
  2  3  1  0
  3  4  1  0
  3  6  1  0
  4  5  1  0
  6  7  2  0
  6  8  1  0
  8  9  1  0
  9 10  2  0
  9 14  1  0
 10 11  1  0
 11 12  2  0
 12 13  1  0
 13 14  2  0
 14 15  1  0
 15 16  1  0
 16 17  2  0
 16 18  1  0
 18 19  1  0
 19 20  2  0
 19 24  1  0
 20 21  1  0
 21 22  2  0
 22 23  1  0
 23 24  2  0
M  END
>  <original SMILES>  (33) 
CCC(CC)C(=O)Nc1ccncc1NC(=O)Nc1ccccc1

>  <AutoDock Predicted Affinity>  (33) 
-6.02925

>  <ref_pdb>  (33) 
x0434_0

>  <ref_mols>  (33) 
x0434_0

>  <creator>  (33) 
Will Poole

>  <energy minimised>  (33) 
True

$$$$
WPC0114_minimised.pdb
     RDKit          3D

 22 23  0  0  0  0  0  0  0  0999 V2000
    7.9360    4.6440   22.0900 C   0  0  0  0  0  0  0  0  0  0  0  0
    6.5150    4.0670   21.9410 C   0  0  0  0  0  0  0  0  0  0  0  0
    6.4700    2.6250   22.4640 C   0  0  0  0  0  0  0  0  0  0  0  0
    5.0480    2.0840   22.5170 C   0  0  0  0  0  0  0  0  0  0  0  0
    4.3810    2.1250   23.5340 O   0  0  0  0  0  0  0  0  0  0  0  0
    4.4840    1.5190   21.4000 N   0  0  0  0  0  0  0  0  0  0  0  0
    5.0110    1.2800   20.1060 C   0  0  0  0  0  0  0  0  0  0  0  0
    4.4960    2.0060   19.0280 C   0  0  0  0  0  0  0  0  0  0  0  0
    4.9400    1.7320   17.7270 C   0  0  0  0  0  0  0  0  0  0  0  0
    5.8240    0.7510   17.4460 N   0  0  0  0  0  0  0  0  0  0  0  0
    6.3410    0.0700   18.4860 C   0  0  0  0  0  0  0  0  0  0  0  0
    5.9810    0.2950   19.8330 C   0  0  0  0  0  0  0  0  0  0  0  0
    6.6990   -0.3500   20.8800 N   0  0  0  0  0  0  0  0  0  0  0  0
    8.0670   -0.2700   20.9660 C   0  0  0  0  0  0  0  0  0  0  0  0
    8.7420    0.1180   20.0330 O   0  0  0  0  0  0  0  0  0  0  0  0
    8.5980   -0.5590   22.1930 N   0  0  0  0  0  0  0  0  0  0  0  0
    9.9400   -0.2690   22.5270 C   0  0  0  0  0  0  0  0  0  0  0  0
   10.9870   -0.9710   21.9100 C   0  0  0  0  0  0  0  0  0  0  0  0
   12.3210   -0.5840   22.1190 C   0  0  0  0  0  0  0  0  0  0  0  0
   12.6090    0.5090   22.9530 C   0  0  0  0  0  0  0  0  0  0  0  0
   11.5630    1.2070   23.5780 C   0  0  0  0  0  0  0  0  0  0  0  0
   10.2300    0.8150   23.3700 C   0  0  0  0  0  0  0  0  0  0  0  0
  1  2  1  0
  2  3  1  0
  3  4  1  0
  4  5  2  0
  4  6  1  0
  6  7  1  0
  7  8  2  0
  7 12  1  0
  8  9  1  0
  9 10  2  0
 10 11  1  0
 11 12  2  0
 12 13  1  0
 13 14  1  0
 14 15  2  0
 14 16  1  0
 16 17  1  0
 17 18  2  0
 17 22  1  0
 18 19  1  0
 19 20  2  0
 20 21  1  0
 21 22  2  0
M  END
>  <original SMILES>  (34) 
CCCC(=O)Nc1ccncc1NC(=O)Nc1ccccc1

>  <AutoDock Predicted Affinity>  (34) 
-5.640133

>  <ref_pdb>  (34) 
x0434_0

>  <ref_mols>  (34) 
x0434_0

>  <creator>  (34) 
Will Poole

>  <energy minimised>  (34) 
True

$$$$
WPC0237_minimised.pdb
     RDKit          3D

 23 24  0  0  0  0  0  0  0  0999 V2000
    6.5880    0.2480   27.2320 C   0  0  0  0  0  0  0  0  0  0  0  0
    5.5040   -0.4550   26.3900 C   0  0  0  0  0  0  0  0  0  0  0  0
    5.3930    0.1320   24.9650 C   0  0  0  0  0  0  0  0  0  0  0  0
    4.1870   -0.4560   24.1960 C   0  0  0  0  0  0  0  0  0  0  0  0
    4.3130   -0.1480   22.7840 O   0  0  0  0  0  0  0  0  0  0  0  0
    5.2420   -0.8510   22.0680 C   0  0  0  0  0  0  0  0  0  0  0  0
    5.6680   -1.9340   22.4410 O   0  0  0  0  0  0  0  0  0  0  0  0
    5.5390   -0.3380   20.6850 C   0  0  0  0  0  0  0  0  0  0  0  0
    4.6150    0.3920   19.9040 C   0  0  0  0  0  0  0  0  0  0  0  0
    4.9340    0.7240   18.5710 C   0  0  0  0  0  0  0  0  0  0  0  0
    6.0950    0.3660   17.9810 N   0  0  0  0  0  0  0  0  0  0  0  0
    7.0300   -0.2040   18.7680 C   0  0  0  0  0  0  0  0  0  0  0  0
    6.8030   -0.5700   20.1120 C   0  0  0  0  0  0  0  0  0  0  0  0
    7.8680   -1.0440   20.9200 N   0  0  0  0  0  0  0  0  0  0  0  0
    9.0050   -0.3270   21.1620 C   0  0  0  0  0  0  0  0  0  0  0  0
    9.2080    0.7460   20.6340 O   0  0  0  0  0  0  0  0  0  0  0  0
    9.8840   -0.9250   22.0200 N   0  0  0  0  0  0  0  0  0  0  0  0
   11.1830   -0.4460   22.2850 C   0  0  0  0  0  0  0  0  0  0  0  0
   12.2740   -1.2740   22.0040 C   0  0  0  0  0  0  0  0  0  0  0  0
   13.5820   -0.7970   22.1610 C   0  0  0  0  0  0  0  0  0  0  0  0
   13.8000    0.5060   22.6370 C   0  0  0  0  0  0  0  0  0  0  0  0
   12.7060    1.3320   22.9400 C   0  0  0  0  0  0  0  0  0  0  0  0
   11.3970    0.8590   22.7560 C   0  0  0  0  0  0  0  0  0  0  0  0
  1  2  1  0
  2  3  1  0
  3  4  1  0
  4  5  1  0
  5  6  1  0
  6  7  2  0
  6  8  1  0
  8  9  2  0
  8 13  1  0
  9 10  1  0
 10 11  2  0
 11 12  1  0
 12 13  2  0
 13 14  1  0
 14 15  1  0
 15 16  2  0
 15 17  1  0
 17 18  1  0
 18 19  2  0
 18 23  1  0
 19 20  1  0
 20 21  2  0
 21 22  1  0
 22 23  2  0
M  END
>  <original SMILES>  (35) 
CCCCOC(=O)c1ccncc1NC(=O)Nc1ccccc1

>  <AutoDock Predicted Affinity>  (35) 
-4.87967

>  <ref_pdb>  (35) 
x0434_0

>  <ref_mols>  (35) 
x0434_0

>  <creator>  (35) 
Will Poole

>  <energy minimised>  (35) 
True

$$$$
WPC0063_minimised.pdb
     RDKit          3D

 21 22  0  0  0  0  0  0  0  0999 V2000
    6.6880    4.1110   22.0090 C   0  0  0  0  0  0  0  0  0  0  0  0
    6.0360    2.7410   22.2400 C   0  0  0  0  0  0  0  0  0  0  0  0
    4.5460    2.7860   21.8320 C   0  0  0  0  0  0  0  0  0  0  0  0
    3.7940    1.4480   22.0000 C   0  0  0  0  0  0  0  0  0  0  0  0
    4.5310    0.3580   21.4080 O   0  0  0  0  0  0  0  0  0  0  0  0
    4.9680    0.3790   20.1010 C   0  0  0  0  0  0  0  0  0  0  0  0
    4.2650    1.0490   19.0890 C   0  0  0  0  0  0  0  0  0  0  0  0
    4.7900    1.0810   17.7930 C   0  0  0  0  0  0  0  0  0  0  0  0
    5.9260    0.4440   17.4490 N   0  0  0  0  0  0  0  0  0  0  0  0
    6.6240   -0.1560   18.4340 C   0  0  0  0  0  0  0  0  0  0  0  0
    6.1960   -0.2150   19.7760 C   0  0  0  0  0  0  0  0  0  0  0  0
    7.0690   -0.6960   20.7980 N   0  0  0  0  0  0  0  0  0  0  0  0
    8.3430   -0.2100   20.9740 C   0  0  0  0  0  0  0  0  0  0  0  0
    8.8230    0.6030   20.2130 O   0  0  0  0  0  0  0  0  0  0  0  0
    9.0330   -0.6960   22.0530 N   0  0  0  0  0  0  0  0  0  0  0  0
   10.3550   -0.3050   22.3660 C   0  0  0  0  0  0  0  0  0  0  0  0
   11.4350   -1.0870   21.9310 C   0  0  0  0  0  0  0  0  0  0  0  0
   12.7550   -0.6480   22.1350 C   0  0  0  0  0  0  0  0  0  0  0  0
   12.9930    0.5670   22.7970 C   0  0  0  0  0  0  0  0  0  0  0  0
   11.9120    1.3500   23.2360 C   0  0  0  0  0  0  0  0  0  0  0  0
   10.5940    0.9150   23.0170 C   0  0  0  0  0  0  0  0  0  0  0  0
  1  2  1  0
  2  3  1  0
  3  4  1  0
  4  5  1  0
  5  6  1  0
  6  7  2  0
  6 11  1  0
  7  8  1  0
  8  9  2  0
  9 10  1  0
 10 11  2  0
 11 12  1  0
 12 13  1  0
 13 14  2  0
 13 15  1  0
 15 16  1  0
 16 17  2  0
 16 21  1  0
 17 18  1  0
 18 19  2  0
 19 20  1  0
 20 21  2  0
M  END
>  <original SMILES>  (36) 
CCCCOc1ccncc1NC(=O)Nc1ccccc1

>  <AutoDock Predicted Affinity>  (36) 
-5.364675

>  <ref_pdb>  (36) 
x0434_0

>  <ref_mols>  (36) 
x0434_0

>  <creator>  (36) 
Will Poole

>  <energy minimised>  (36) 
True

$$$$
WPC0023_minimised.pdb
     RDKit          3D

 23 24  0  0  0  0  0  0  0  0999 V2000
    6.4520    3.7440   25.3810 C   0  0  0  0  0  0  0  0  0  0  0  0
    6.8010    3.5980   24.1000 C   0  0  0  0  0  0  0  0  0  0  0  0
    7.4860    2.3580   23.6010 C   0  0  0  0  0  0  0  0  0  0  0  0
    6.7830    1.8240   22.4830 O   0  0  0  0  0  0  0  0  0  0  0  0
    5.5510    1.1670   22.5910 C   0  0  0  0  0  0  0  0  0  0  0  0
    4.9870    1.0480   23.7120 O   0  0  0  0  0  0  0  0  0  0  0  0
    4.9090    0.6470   21.4220 N   0  0  0  0  0  0  0  0  0  0  0  0
    5.5360    0.6450   20.1320 C   0  0  0  0  0  0  0  0  0  0  0  0
    4.8880    1.2600   19.0580 C   0  0  0  0  0  0  0  0  0  0  0  0
    5.4840    1.2510   17.7960 C   0  0  0  0  0  0  0  0  0  0  0  0
    6.6810    0.6420   17.6090 N   0  0  0  0  0  0  0  0  0  0  0  0
    7.3340    0.0340   18.6290 C   0  0  0  0  0  0  0  0  0  0  0  0
    6.7790    0.0230   19.9130 C   0  0  0  0  0  0  0  0  0  0  0  0
    7.4640   -0.6440   20.9750 N   0  0  0  0  0  0  0  0  0  0  0  0
    8.7750   -0.2410   21.3790 C   0  0  0  0  0  0  0  0  0  0  0  0
    9.3250    0.7620   20.8480 O   0  0  0  0  0  0  0  0  0  0  0  0
    9.4400   -0.9370   22.4280 N   0  0  0  0  0  0  0  0  0  0  0  0
   10.7380   -0.5080   22.8170 C   0  0  0  0  0  0  0  0  0  0  0  0
   11.8470   -0.9040   22.0640 C   0  0  0  0  0  0  0  0  0  0  0  0
   13.1130   -0.4100   22.3780 C   0  0  0  0  0  0  0  0  0  0  0  0
   13.2640    0.4950   23.4320 C   0  0  0  0  0  0  0  0  0  0  0  0
   12.1500    0.9080   24.1710 C   0  0  0  0  0  0  0  0  0  0  0  0
   10.8840    0.4070   23.8640 C   0  0  0  0  0  0  0  0  0  0  0  0
  1  2  1  0
  2  3  1  0
  3  4  1  0
  4  5  1  0
  5  6  2  0
  5  7  1  0
  7  8  1  0
  8  9  2  0
  8 13  1  0
  9 10  1  0
 10 11  2  0
 11 12  1  0
 12 13  2  0
 13 14  1  0
 14 15  1  0
 15 16  2  0
 15 17  1  0
 17 18  1  0
 18 19  2  0
 18 23  1  0
 19 20  1  0
 20 21  2  0
 21 22  1  0
 22 23  2  0
M  END
>  <original SMILES>  (37) 
CCCOC(=O)Nc1ccncc1NC(=O)Nc1ccccc1

>  <AutoDock Predicted Affinity>  (37) 
-1.575

>  <ref_pdb>  (37) 
x0434_0

>  <ref_mols>  (37) 
x0434_0

>  <creator>  (37) 
Will Poole

>  <energy minimised>  (37) 
True

$$$$
WPC0162_minimised.pdb
     RDKit          3D

 22 23  0  0  0  0  0  0  0  0999 V2000
    7.3080    0.3610   24.8640 C   0  0  0  0  0  0  0  0  0  0  0  0
    5.8030    0.0360   24.9920 C   0  0  0  0  0  0  0  0  0  0  0  0
    5.3900   -1.2330   24.2090 C   0  0  0  0  0  0  0  0  0  0  0  0
    5.6900   -1.0630   22.8060 O   0  0  0  0  0  0  0  0  0  0  0  0
    4.9450   -0.2000   22.0450 C   0  0  0  0  0  0  0  0  0  0  0  0
    3.8230    0.1290   22.3940 O   0  0  0  0  0  0  0  0  0  0  0  0
    5.4280   -0.0110   20.6240 C   0  0  0  0  0  0  0  0  0  0  0  0
    4.5930    0.6310   19.6810 C   0  0  0  0  0  0  0  0  0  0  0  0
    5.0080    0.7940   18.3480 C   0  0  0  0  0  0  0  0  0  0  0  0
    6.1900    0.3330   17.8910 N   0  0  0  0  0  0  0  0  0  0  0  0
    7.0370   -0.1860   18.8030 C   0  0  0  0  0  0  0  0  0  0  0  0
    6.7160   -0.3730   20.1680 C   0  0  0  0  0  0  0  0  0  0  0  0
    7.7240   -0.8230   21.0610 N   0  0  0  0  0  0  0  0  0  0  0  0
    8.9180   -0.1850   21.2420 C   0  0  0  0  0  0  0  0  0  0  0  0
    9.2220    0.7980   20.6020 O   0  0  0  0  0  0  0  0  0  0  0  0
    9.7360   -0.7570   22.1750 N   0  0  0  0  0  0  0  0  0  0  0  0
   11.0690   -0.3560   22.3930 C   0  0  0  0  0  0  0  0  0  0  0  0
   12.1060   -1.2340   22.0580 C   0  0  0  0  0  0  0  0  0  0  0  0
   13.4420   -0.8180   22.1540 C   0  0  0  0  0  0  0  0  0  0  0  0
   13.7400    0.4730   22.6200 C   0  0  0  0  0  0  0  0  0  0  0  0
   12.7000    1.3490   22.9720 C   0  0  0  0  0  0  0  0  0  0  0  0
   11.3640    0.9370   22.8510 C   0  0  0  0  0  0  0  0  0  0  0  0
  1  2  1  0
  2  3  1  0
  3  4  1  0
  4  5  1  0
  5  6  2  0
  5  7  1  0
  7  8  2  0
  7 12  1  0
  8  9  1  0
  9 10  2  0
 10 11  1  0
 11 12  2  0
 12 13  1  0
 13 14  1  0
 14 15  2  0
 14 16  1  0
 16 17  1  0
 17 18  2  0
 17 22  1  0
 18 19  1  0
 19 20  2  0
 20 21  1  0
 21 22  2  0
M  END
>  <original SMILES>  (38) 
CCCOC(=O)c1ccncc1NC(=O)Nc1ccccc1

>  <AutoDock Predicted Affinity>  (38) 
-5.27095

>  <ref_pdb>  (38) 
x0434_0

>  <ref_mols>  (38) 
x0434_0

>  <creator>  (38) 
Will Poole

>  <energy minimised>  (38) 
True

$$$$
WPC0223_minimised.pdb
     RDKit          3D

 20 21  0  0  0  0  0  0  0  0999 V2000
    5.8620    4.0250   21.9060 C   0  0  0  0  0  0  0  0  0  0  0  0
    6.7790    2.8640   22.3350 C   0  0  0  0  0  0  0  0  0  0  0  0
    6.0090    1.5900   22.7440 C   0  0  0  0  0  0  0  0  0  0  0  0
    5.1300    1.1440   21.6860 O   0  0  0  0  0  0  0  0  0  0  0  0
    5.5300    0.9000   20.3880 C   0  0  0  0  0  0  0  0  0  0  0  0
    4.8290    1.5370   19.3560 C   0  0  0  0  0  0  0  0  0  0  0  0
    5.1730    1.2840   18.0220 C   0  0  0  0  0  0  0  0  0  0  0  0
    6.1520    0.4260   17.6710 N   0  0  0  0  0  0  0  0  0  0  0  0
    6.8590   -0.1470   18.6670 C   0  0  0  0  0  0  0  0  0  0  0  0
    6.5820    0.0290   20.0370 C   0  0  0  0  0  0  0  0  0  0  0  0
    7.4500   -0.5590   21.0000 N   0  0  0  0  0  0  0  0  0  0  0  0
    8.7170   -0.0820   21.2150 C   0  0  0  0  0  0  0  0  0  0  0  0
    9.1350    0.8780   20.6030 O   0  0  0  0  0  0  0  0  0  0  0  0
    9.4750   -0.7590   22.1320 N   0  0  0  0  0  0  0  0  0  0  0  0
   10.8330   -0.4530   22.3810 C   0  0  0  0  0  0  0  0  0  0  0  0
   11.8280   -1.3720   22.0220 C   0  0  0  0  0  0  0  0  0  0  0  0
   13.1850   -1.0200   22.1140 C   0  0  0  0  0  0  0  0  0  0  0  0
   13.5470    0.2460   22.6040 C   0  0  0  0  0  0  0  0  0  0  0  0
   12.5530    1.1590   22.9890 C   0  0  0  0  0  0  0  0  0  0  0  0
   11.1970    0.8120   22.8700 C   0  0  0  0  0  0  0  0  0  0  0  0
  1  2  1  0
  2  3  1  0
  3  4  1  0
  4  5  1  0
  5  6  2  0
  5 10  1  0
  6  7  1  0
  7  8  2  0
  8  9  1  0
  9 10  2  0
 10 11  1  0
 11 12  1  0
 12 13  2  0
 12 14  1  0
 14 15  1  0
 15 16  2  0
 15 20  1  0
 16 17  1  0
 17 18  2  0
 18 19  1  0
 19 20  2  0
M  END
>  <original SMILES>  (39) 
CCCOc1ccncc1NC(=O)Nc1ccccc1

>  <AutoDock Predicted Affinity>  (39) 
-5.544393

>  <ref_pdb>  (39) 
x0434_0

>  <ref_mols>  (39) 
x0434_0

>  <creator>  (39) 
Will Poole

>  <energy minimised>  (39) 
True

$$$$
WPC0203_minimised.pdb
     RDKit          3D

 24 25  0  0  0  0  0  0  0  0999 V2000
    4.2950    3.2290   22.5520 C   0  0  0  0  0  0  0  0  0  0  0  0
    5.6420    2.4870   22.4430 C   0  0  0  0  0  0  0  0  0  0  0  0
    5.6000    1.1340   23.0580 N   0  0  0  0  0  0  0  0  0  0  0  0
    6.2880    0.9710   24.3540 C   0  0  0  0  0  0  0  0  0  0  0  0
    5.2970    0.8690   25.5320 C   0  0  0  0  0  0  0  0  0  0  0  0
    5.1000    0.0170   22.4010 C   0  0  0  0  0  0  0  0  0  0  0  0
    5.0350   -1.0960   22.8980 O   0  0  0  0  0  0  0  0  0  0  0  0
    4.4860    0.2990   21.2290 O   0  0  0  0  0  0  0  0  0  0  0  0
    5.0980    0.4200   20.0060 C   0  0  0  0  0  0  0  0  0  0  0  0
    4.4270    1.1700   19.0360 C   0  0  0  0  0  0  0  0  0  0  0  0
    4.9770    1.3030   17.7580 C   0  0  0  0  0  0  0  0  0  0  0  0
    6.1290    0.7010   17.4000 N   0  0  0  0  0  0  0  0  0  0  0  0
    6.8180    0.0500   18.3590 C   0  0  0  0  0  0  0  0  0  0  0  0
    6.3620   -0.1220   19.6820 C   0  0  0  0  0  0  0  0  0  0  0  0
    7.2410   -0.7000   20.6500 N   0  0  0  0  0  0  0  0  0  0  0  0
    8.4590   -0.1480   20.9680 C   0  0  0  0  0  0  0  0  0  0  0  0
    8.8550    0.8600   20.4250 O   0  0  0  0  0  0  0  0  0  0  0  0
    9.2050   -0.8080   21.9080 N   0  0  0  0  0  0  0  0  0  0  0  0
   10.5260   -0.4370   22.2510 C   0  0  0  0  0  0  0  0  0  0  0  0
   11.5920   -1.2870   21.9240 C   0  0  0  0  0  0  0  0  0  0  0  0
   12.9190   -0.8790   22.1420 C   0  0  0  0  0  0  0  0  0  0  0  0
   13.1790    0.3740   22.7220 C   0  0  0  0  0  0  0  0  0  0  0  0
   12.1120    1.2190   23.0700 C   0  0  0  0  0  0  0  0  0  0  0  0
   10.7890    0.8160   22.8270 C   0  0  0  0  0  0  0  0  0  0  0  0
  1  2  1  0
  2  3  1  0
  3  4  1  0
  3  6  1  0
  4  5  1  0
  6  7  2  0
  6  8  1  0
  8  9  1  0
  9 10  2  0
  9 14  1  0
 10 11  1  0
 11 12  2  0
 12 13  1  0
 13 14  2  0
 14 15  1  0
 15 16  1  0
 16 17  2  0
 16 18  1  0
 18 19  1  0
 19 20  2  0
 19 24  1  0
 20 21  1  0
 21 22  2  0
 22 23  1  0
 23 24  2  0
M  END
>  <original SMILES>  (40) 
CCN(CC)C(=O)Oc1ccncc1NC(=O)Nc1ccccc1

>  <AutoDock Predicted Affinity>  (40) 
-5.40345

>  <ref_pdb>  (40) 
x0434_0

>  <ref_mols>  (40) 
x0434_0

>  <creator>  (40) 
Will Poole

>  <energy minimised>  (40) 
True

$$$$
WPC0038_minimised.pdb
     RDKit          3D

 22 23  0  0  0  0  0  0  0  0999 V2000
    2.2670    3.8600   21.3510 C   0  0  0  0  0  0  0  0  0  0  0  0
    2.2790    2.4320   21.9260 C   0  0  0  0  0  0  0  0  0  0  0  0
    3.4640    1.7780   21.4480 O   0  0  0  0  0  0  0  0  0  0  0  0
    4.6460    2.0240   22.0850 C   0  0  0  0  0  0  0  0  0  0  0  0
    4.7420    2.1880   23.2840 O   0  0  0  0  0  0  0  0  0  0  0  0
    5.7280    1.6390   21.3450 N   0  0  0  0  0  0  0  0  0  0  0  0
    5.7760    1.1850   20.0130 C   0  0  0  0  0  0  0  0  0  0  0  0
    5.0300    1.8180   19.0140 C   0  0  0  0  0  0  0  0  0  0  0  0
    5.1490    1.3920   17.6910 C   0  0  0  0  0  0  0  0  0  0  0  0
    5.9250    0.3490   17.3380 N   0  0  0  0  0  0  0  0  0  0  0  0
    6.6520   -0.2550   18.2970 C   0  0  0  0  0  0  0  0  0  0  0  0
    6.6240    0.1240   19.6490 C   0  0  0  0  0  0  0  0  0  0  0  0
    7.5210   -0.4810   20.5830 N   0  0  0  0  0  0  0  0  0  0  0  0
    8.6590    0.1270   21.0490 C   0  0  0  0  0  0  0  0  0  0  0  0
    8.9020    1.2870   20.7960 O   0  0  0  0  0  0  0  0  0  0  0  0
    9.4950   -0.6800   21.7750 N   0  0  0  0  0  0  0  0  0  0  0  0
   10.8210   -0.3460   22.1400 C   0  0  0  0  0  0  0  0  0  0  0  0
   11.8550   -1.2420   21.8350 C   0  0  0  0  0  0  0  0  0  0  0  0
   13.1950   -0.8950   22.0750 C   0  0  0  0  0  0  0  0  0  0  0  0
   13.5010    0.3460   22.6560 C   0  0  0  0  0  0  0  0  0  0  0  0
   12.4670    1.2340   22.9930 C   0  0  0  0  0  0  0  0  0  0  0  0
   11.1310    0.8900   22.7330 C   0  0  0  0  0  0  0  0  0  0  0  0
  1  2  1  0
  2  3  1  0
  3  4  1  0
  4  5  2  0
  4  6  1  0
  6  7  1  0
  7  8  2  0
  7 12  1  0
  8  9  1  0
  9 10  2  0
 10 11  1  0
 11 12  2  0
 12 13  1  0
 13 14  1  0
 14 15  2  0
 14 16  1  0
 16 17  1  0
 17 18  2  0
 17 22  1  0
 18 19  1  0
 19 20  2  0
 20 21  1  0
 21 22  2  0
M  END
>  <original SMILES>  (41) 
CCOC(=O)Nc1ccncc1NC(=O)Nc1ccccc1

>  <AutoDock Predicted Affinity>  (41) 
-5.550475

>  <ref_pdb>  (41) 
x0434_0

>  <ref_mols>  (41) 
x0434_0

>  <creator>  (41) 
Will Poole

>  <energy minimised>  (41) 
True

$$$$
WPC0234_minimised.pdb
     RDKit          3D

 19 20  0  0  0  0  0  0  0  0999 V2000
    7.0990    3.4250   22.2760 C   0  0  0  0  0  0  0  0  0  0  0  0
    5.6340    3.6980   21.8820 C   0  0  0  0  0  0  0  0  0  0  0  0
    4.6770    2.1290   21.7330 S   0  0  0  0  0  0  0  0  0  0  0  0
    5.1080    1.5460   20.1030 C   0  0  0  0  0  0  0  0  0  0  0  0
    4.5610    2.1690   18.9740 C   0  0  0  0  0  0  0  0  0  0  0  0
    4.9360    1.7350   17.6940 C   0  0  0  0  0  0  0  0  0  0  0  0
    5.7910    0.7090   17.4830 N   0  0  0  0  0  0  0  0  0  0  0  0
    6.3380    0.1310   18.5720 C   0  0  0  0  0  0  0  0  0  0  0  0
    6.0350    0.5120   19.8970 C   0  0  0  0  0  0  0  0  0  0  0  0
    6.7600   -0.0190   20.9920 N   0  0  0  0  0  0  0  0  0  0  0  0
    8.1220    0.0460   21.0650 C   0  0  0  0  0  0  0  0  0  0  0  0
    8.7910    0.3570   20.1010 O   0  0  0  0  0  0  0  0  0  0  0  0
    8.6560   -0.2030   22.2990 N   0  0  0  0  0  0  0  0  0  0  0  0
   10.0030    0.0690   22.6240 C   0  0  0  0  0  0  0  0  0  0  0  0
   11.0460   -0.6150   21.9760 C   0  0  0  0  0  0  0  0  0  0  0  0
   12.3820   -0.2420   22.2010 C   0  0  0  0  0  0  0  0  0  0  0  0
   12.6740    0.8200   23.0730 C   0  0  0  0  0  0  0  0  0  0  0  0
   11.6300    1.5010   23.7200 C   0  0  0  0  0  0  0  0  0  0  0  0
   10.2980    1.1180   23.5060 C   0  0  0  0  0  0  0  0  0  0  0  0
  1  2  1  0
  2  3  1  0
  3  4  1  0
  4  5  2  0
  4  9  1  0
  5  6  1  0
  6  7  2  0
  7  8  1  0
  8  9  2  0
  9 10  1  0
 10 11  1  0
 11 12  2  0
 11 13  1  0
 13 14  1  0
 14 15  2  0
 14 19  1  0
 15 16  1  0
 16 17  2  0
 17 18  1  0
 18 19  2  0
M  END
>  <original SMILES>  (42) 
CCSc1ccncc1NC(=O)Nc1ccccc1

>  <AutoDock Predicted Affinity>  (42) 
-4.946705

>  <ref_pdb>  (42) 
x0434_0

>  <ref_mols>  (42) 
x0434_0

>  <creator>  (42) 
Will Poole

>  <energy minimised>  (42) 
True

$$$$
WPC0050_minimised.pdb
     RDKit          3D

 18 19  0  0  0  0  0  0  0  0999 V2000
    5.7540    3.5110   21.8070 C   0  0  0  0  0  0  0  0  0  0  0  0
    4.7420    2.4030   21.4580 C   0  0  0  0  0  0  0  0  0  0  0  0
    5.0530    1.7190   20.1300 C   0  0  0  0  0  0  0  0  0  0  0  0
    4.4720    2.2080   18.9520 C   0  0  0  0  0  0  0  0  0  0  0  0
    4.8410    1.6730   17.7100 C   0  0  0  0  0  0  0  0  0  0  0  0
    5.6920    0.6340   17.5760 N   0  0  0  0  0  0  0  0  0  0  0  0
    6.2540    0.1610   18.7070 C   0  0  0  0  0  0  0  0  0  0  0  0
    5.9820    0.6700   19.9990 C   0  0  0  0  0  0  0  0  0  0  0  0
    6.7490    0.2330   21.1140 N   0  0  0  0  0  0  0  0  0  0  0  0
    8.1190    0.2330   21.1220 C   0  0  0  0  0  0  0  0  0  0  0  0
    8.7570    0.4630   20.1160 O   0  0  0  0  0  0  0  0  0  0  0  0
    8.7090   -0.0150   22.3310 N   0  0  0  0  0  0  0  0  0  0  0  0
   10.1020    0.0870   22.5430 C   0  0  0  0  0  0  0  0  0  0  0  0
   10.9790   -0.8160   21.9210 C   0  0  0  0  0  0  0  0  0  0  0  0
   12.3690   -0.6360   22.0210 C   0  0  0  0  0  0  0  0  0  0  0  0
   12.8830    0.4500   22.7480 C   0  0  0  0  0  0  0  0  0  0  0  0
   12.0050    1.3520   23.3720 C   0  0  0  0  0  0  0  0  0  0  0  0
   10.6170    1.1670   23.2760 C   0  0  0  0  0  0  0  0  0  0  0  0
  1  2  1  0
  2  3  1  0
  3  4  2  0
  3  8  1  0
  4  5  1  0
  5  6  2  0
  6  7  1  0
  7  8  2  0
  8  9  1  0
  9 10  1  0
 10 11  2  0
 10 12  1  0
 12 13  1  0
 13 14  2  0
 13 18  1  0
 14 15  1  0
 15 16  2  0
 16 17  1  0
 17 18  2  0
M  END
>  <original SMILES>  (43) 
CCc1ccncc1NC(=O)Nc1ccccc1

>  <AutoDock Predicted Affinity>  (43) 
-5.61938

>  <ref_pdb>  (43) 
x0434_0

>  <ref_mols>  (43) 
x0434_0

>  <creator>  (43) 
Will Poole

>  <energy minimised>  (43) 
True

$$$$
WPC0211_minimised.pdb
     RDKit          3D

 22 23  0  0  0  0  0  0  0  0999 V2000
    3.5730    3.6620   23.1610 C   0  0  0  0  0  0  0  0  0  0  0  0
    3.8450    2.2470   23.5090 N   0  0  0  0  0  0  0  0  0  0  0  0
    3.6270    1.8500   24.9130 C   0  0  0  0  0  0  0  0  0  0  0  0
    4.3200    1.3380   22.5710 C   0  0  0  0  0  0  0  0  0  0  0  0
    4.4320    0.1410   22.8000 O   0  0  0  0  0  0  0  0  0  0  0  0
    4.4890    1.9230   21.3580 O   0  0  0  0  0  0  0  0  0  0  0  0
    4.8570    1.3580   20.1600 C   0  0  0  0  0  0  0  0  0  0  0  0
    4.2440    1.8640   19.0120 C   0  0  0  0  0  0  0  0  0  0  0  0
    4.6630    1.4250   17.7520 C   0  0  0  0  0  0  0  0  0  0  0  0
    5.6020    0.4710   17.5810 N   0  0  0  0  0  0  0  0  0  0  0  0
    6.2100    0.0010   18.6890 C   0  0  0  0  0  0  0  0  0  0  0  0
    5.9070    0.4310   20.0020 C   0  0  0  0  0  0  0  0  0  0  0  0
    6.7380    0.0610   21.1000 N   0  0  0  0  0  0  0  0  0  0  0  0
    8.1120    0.1070   21.0720 C   0  0  0  0  0  0  0  0  0  0  0  0
    8.7270    0.2970   20.0430 O   0  0  0  0  0  0  0  0  0  0  0  0
    8.7370   -0.0460   22.2820 N   0  0  0  0  0  0  0  0  0  0  0  0
   10.1330    0.0810   22.4650 C   0  0  0  0  0  0  0  0  0  0  0  0
   11.0100   -0.8510   21.8870 C   0  0  0  0  0  0  0  0  0  0  0  0
   12.4000   -0.6760   21.9940 C   0  0  0  0  0  0  0  0  0  0  0  0
   12.9140    0.4350   22.6840 C   0  0  0  0  0  0  0  0  0  0  0  0
   12.0370    1.3650   23.2640 C   0  0  0  0  0  0  0  0  0  0  0  0
   10.6470    1.1860   23.1590 C   0  0  0  0  0  0  0  0  0  0  0  0
  1  2  1  0
  2  3  1  0
  2  4  1  0
  4  5  2  0
  4  6  1  0
  6  7  1  0
  7  8  2  0
  7 12  1  0
  8  9  1  0
  9 10  2  0
 10 11  1  0
 11 12  2  0
 12 13  1  0
 13 14  1  0
 14 15  2  0
 14 16  1  0
 16 17  1  0
 17 18  2  0
 17 22  1  0
 18 19  1  0
 19 20  2  0
 20 21  1  0
 21 22  2  0
M  END
>  <original SMILES>  (44) 
CN(C)C(=O)Oc1ccncc1NC(=O)Nc1ccccc1

>  <AutoDock Predicted Affinity>  (44) 
-5.48403

>  <ref_pdb>  (44) 
x0434_0

>  <ref_mols>  (44) 
x0434_0

>  <creator>  (44) 
Will Poole

>  <energy minimised>  (44) 
True

$$$$
WPC0172_minimised.pdb
     RDKit          3D

 20 21  0  0  0  0  0  0  0  0999 V2000
    7.3370    2.9340   22.4950 C   0  0  0  0  0  0  0  0  0  0  0  0
    5.8680    2.8090   22.4500 N   0  0  0  0  0  0  0  0  0  0  0  0
    5.2390    3.9670   21.7890 C   0  0  0  0  0  0  0  0  0  0  0  0
    5.3720    1.5020   21.9740 C   0  0  0  0  0  0  0  0  0  0  0  0
    5.6780    1.1320   20.5180 C   0  0  0  0  0  0  0  0  0  0  0  0
    4.9500    1.7080   19.4570 C   0  0  0  0  0  0  0  0  0  0  0  0
    5.2250    1.3430   18.1290 C   0  0  0  0  0  0  0  0  0  0  0  0
    6.1590    0.4280   17.7960 N   0  0  0  0  0  0  0  0  0  0  0  0
    6.8840   -0.0970   18.8040 C   0  0  0  0  0  0  0  0  0  0  0  0
    6.6690    0.1900   20.1690 C   0  0  0  0  0  0  0  0  0  0  0  0
    7.5420   -0.3730   21.1410 N   0  0  0  0  0  0  0  0  0  0  0  0
    8.8200    0.0830   21.3250 C   0  0  0  0  0  0  0  0  0  0  0  0
    9.2450    1.0360   20.7070 O   0  0  0  0  0  0  0  0  0  0  0  0
    9.5850   -0.6200   22.2150 N   0  0  0  0  0  0  0  0  0  0  0  0
   10.9520   -0.3430   22.4370 C   0  0  0  0  0  0  0  0  0  0  0  0
   11.9240   -1.2690   22.0340 C   0  0  0  0  0  0  0  0  0  0  0  0
   13.2880   -0.9410   22.1070 C   0  0  0  0  0  0  0  0  0  0  0  0
   13.6790    0.3110   22.6130 C   0  0  0  0  0  0  0  0  0  0  0  0
   12.7070    1.2300   23.0360 C   0  0  0  0  0  0  0  0  0  0  0  0
   11.3460    0.9060   22.9430 C   0  0  0  0  0  0  0  0  0  0  0  0
  1  2  1  0
  2  3  1  0
  2  4  1  0
  4  5  1  0
  5  6  2  0
  5 10  1  0
  6  7  1  0
  7  8  2  0
  8  9  1  0
  9 10  2  0
 10 11  1  0
 11 12  1  0
 12 13  2  0
 12 14  1  0
 14 15  1  0
 15 16  2  0
 15 20  1  0
 16 17  1  0
 17 18  2  0
 18 19  1  0
 19 20  2  0
M  END
>  <original SMILES>  (45) 
CN(C)Cc1ccncc1NC(=O)Nc1ccccc1

>  <AutoDock Predicted Affinity>  (45) 
-5.585006

>  <ref_pdb>  (45) 
x0434_0

>  <ref_mols>  (45) 
x0434_0

>  <creator>  (45) 
Will Poole

>  <energy minimised>  (45) 
True

$$$$
WPC0151_minimised.pdb
     RDKit          3D

 21 22  0  0  0  0  0  0  0  0999 V2000
    7.4250    1.4450   24.0550 C   0  0  0  0  0  0  0  0  0  0  0  0
    6.2230    0.6250   23.8470 N   0  0  0  0  0  0  0  0  0  0  0  0
    5.6150    0.3860   22.6460 C   0  0  0  0  0  0  0  0  0  0  0  0
    4.7530   -0.4680   22.5620 O   0  0  0  0  0  0  0  0  0  0  0  0
    6.0540    1.1390   21.5950 N   0  0  0  0  0  0  0  0  0  0  0  0
    5.8990    0.8160   20.2350 C   0  0  0  0  0  0  0  0  0  0  0  0
    4.9640    1.4840   19.4380 C   0  0  0  0  0  0  0  0  0  0  0  0
    4.9140    1.2090   18.0650 C   0  0  0  0  0  0  0  0  0  0  0  0
    5.7120    0.2890   17.4790 N   0  0  0  0  0  0  0  0  0  0  0  0
    6.6090   -0.3500   18.2550 C   0  0  0  0  0  0  0  0  0  0  0  0
    6.7610   -0.1150   19.6310 C   0  0  0  0  0  0  0  0  0  0  0  0
    7.8310   -0.7200   20.3610 N   0  0  0  0  0  0  0  0  0  0  0  0
    8.8790   -0.0320   20.9240 C   0  0  0  0  0  0  0  0  0  0  0  0
    8.9680    1.1770   20.8670 O   0  0  0  0  0  0  0  0  0  0  0  0
    9.8230   -0.8310   21.5100 N   0  0  0  0  0  0  0  0  0  0  0  0
   11.0980   -0.4180   21.9630 C   0  0  0  0  0  0  0  0  0  0  0  0
   12.2000   -1.2220   21.6520 C   0  0  0  0  0  0  0  0  0  0  0  0
   13.4970   -0.8240   22.0060 C   0  0  0  0  0  0  0  0  0  0  0  0
   13.6930    0.3820   22.6970 C   0  0  0  0  0  0  0  0  0  0  0  0
   12.5890    1.1810   23.0340 C   0  0  0  0  0  0  0  0  0  0  0  0
   11.2940    0.7820   22.6690 C   0  0  0  0  0  0  0  0  0  0  0  0
  1  2  1  0
  2  3  1  0
  3  4  2  0
  3  5  1  0
  5  6  1  0
  6  7  2  0
  6 11  1  0
  7  8  1  0
  8  9  2  0
  9 10  1  0
 10 11  2  0
 11 12  1  0
 12 13  1  0
 13 14  2  0
 13 15  1  0
 15 16  1  0
 16 17  2  0
 16 21  1  0
 17 18  1  0
 18 19  2  0
 19 20  1  0
 20 21  2  0
M  END
>  <original SMILES>  (46) 
CNC(=O)Nc1ccncc1NC(=O)Nc1ccccc1

>  <AutoDock Predicted Affinity>  (46) 
-6.09698

>  <ref_pdb>  (46) 
x0434_0

>  <ref_mols>  (46) 
x0434_0

>  <creator>  (46) 
Will Poole

>  <energy minimised>  (46) 
True

$$$$
WPC0074_minimised.pdb
     RDKit          3D

 22 23  0  0  0  0  0  0  0  0999 V2000
    1.1300    2.9070   22.9600 C   0  0  0  0  0  0  0  0  0  0  0  0
    2.5080    2.5450   23.1550 O   0  0  0  0  0  0  0  0  0  0  0  0
    3.1850    1.9890   22.1100 C   0  0  0  0  0  0  0  0  0  0  0  0
    2.6370    1.4350   21.1710 O   0  0  0  0  0  0  0  0  0  0  0  0
    4.6410    1.9820   22.4040 C   0  0  0  0  0  0  0  0  0  0  0  0
    5.6950    1.5790   21.6510 C   0  0  0  0  0  0  0  0  0  0  0  0
    5.7370    1.0730   20.2590 C   0  0  0  0  0  0  0  0  0  0  0  0
    4.9430    1.6840   19.2720 C   0  0  0  0  0  0  0  0  0  0  0  0
    5.0590    1.2950   17.9330 C   0  0  0  0  0  0  0  0  0  0  0  0
    5.9110    0.3290   17.5280 N   0  0  0  0  0  0  0  0  0  0  0  0
    6.6910   -0.2430   18.4680 C   0  0  0  0  0  0  0  0  0  0  0  0
    6.6520    0.0850   19.8390 C   0  0  0  0  0  0  0  0  0  0  0  0
    7.5940   -0.5010   20.7340 N   0  0  0  0  0  0  0  0  0  0  0  0
    8.7780    0.0950   21.0890 C   0  0  0  0  0  0  0  0  0  0  0  0
    9.0480    1.2260   20.7540 O   0  0  0  0  0  0  0  0  0  0  0  0
    9.6390   -0.6950   21.8030 N   0  0  0  0  0  0  0  0  0  0  0  0
   10.9700   -0.3450   22.1310 C   0  0  0  0  0  0  0  0  0  0  0  0
   12.0070   -1.2300   21.8070 C   0  0  0  0  0  0  0  0  0  0  0  0
   13.3450   -0.8730   22.0380 C   0  0  0  0  0  0  0  0  0  0  0  0
   13.6460    0.3670   22.6240 C   0  0  0  0  0  0  0  0  0  0  0  0
   12.6080    1.2460   22.9720 C   0  0  0  0  0  0  0  0  0  0  0  0
   11.2730    0.8920   22.7230 C   0  0  0  0  0  0  0  0  0  0  0  0
  1  2  1  0
  2  3  1  0
  3  4  2  0
  3  5  1  0
  5  6  2  0
  6  7  1  0
  7  8  2  0
  7 12  1  0
  8  9  1  0
  9 10  2  0
 10 11  1  0
 11 12  2  0
 12 13  1  0
 13 14  1  0
 14 15  2  0
 14 16  1  0
 16 17  1  0
 17 18  2  0
 17 22  1  0
 18 19  1  0
 19 20  2  0
 20 21  1  0
 21 22  2  0
M  END
>  <original SMILES>  (47) 
COC(=O)C=Cc1ccncc1NC(=O)Nc1ccccc1

>  <AutoDock Predicted Affinity>  (47) 
-5.649567

>  <ref_pdb>  (47) 
x0434_0

>  <ref_mols>  (47) 
x0434_0

>  <creator>  (47) 
Will Poole

>  <energy minimised>  (47) 
True

$$$$
WPC0073_minimised.pdb
     RDKit          3D

 22 23  0  0  0  0  0  0  0  0999 V2000
   10.0450    4.7370   23.6370 C   0  0  0  0  0  0  0  0  0  0  0  0
    9.0790    3.7210   23.3190 O   0  0  0  0  0  0  0  0  0  0  0  0
    8.0090    4.0830   22.5580 C   0  0  0  0  0  0  0  0  0  0  0  0
    7.7540    5.2250   22.2330 O   0  0  0  0  0  0  0  0  0  0  0  0
    7.2850    2.8910   22.0630 C   0  0  0  0  0  0  0  0  0  0  0  0
    6.2020    2.8720   21.2430 C   0  0  0  0  0  0  0  0  0  0  0  0
    5.6620    1.7950   20.3540 C   0  0  0  0  0  0  0  0  0  0  0  0
    4.7760    2.2070   19.3440 C   0  0  0  0  0  0  0  0  0  0  0  0
    4.5610    1.4110   18.2120 C   0  0  0  0  0  0  0  0  0  0  0  0
    5.0950    0.1810   18.0710 N   0  0  0  0  0  0  0  0  0  0  0  0
    5.8760   -0.2650   19.0750 C   0  0  0  0  0  0  0  0  0  0  0  0
    6.1740    0.4810   20.2360 C   0  0  0  0  0  0  0  0  0  0  0  0
    7.0470   -0.0790   21.2010 N   0  0  0  0  0  0  0  0  0  0  0  0
    8.3990   -0.1730   21.0330 C   0  0  0  0  0  0  0  0  0  0  0  0
    8.9120    0.0460   19.9580 O   0  0  0  0  0  0  0  0  0  0  0  0
    9.0910   -0.4340   22.1870 N   0  0  0  0  0  0  0  0  0  0  0  0
   10.4810   -0.2460   22.3460 C   0  0  0  0  0  0  0  0  0  0  0  0
   11.3940   -1.0910   21.7010 C   0  0  0  0  0  0  0  0  0  0  0  0
   12.7760   -0.8510   21.7980 C   0  0  0  0  0  0  0  0  0  0  0  0
   13.2430    0.2370   22.5520 C   0  0  0  0  0  0  0  0  0  0  0  0
   12.3310    1.0730   23.2150 C   0  0  0  0  0  0  0  0  0  0  0  0
   10.9520    0.8250   23.1190 C   0  0  0  0  0  0  0  0  0  0  0  0
  1  2  1  0
  2  3  1  0
  3  4  2  0
  3  5  1  0
  5  6  1  0
  6  7  1  0
  7  8  2  0
  7 12  1  0
  8  9  1  0
  9 10  2  0
 10 11  1  0
 11 12  2  0
 12 13  1  0
 13 14  1  0
 14 15  2  0
 14 16  1  0
 16 17  1  0
 17 18  2  0
 17 22  1  0
 18 19  1  0
 19 20  2  0
 20 21  1  0
 21 22  2  0
M  END
>  <original SMILES>  (48) 
COC(=O)CCc1ccncc1NC(=O)Nc1ccccc1

>  <AutoDock Predicted Affinity>  (48) 
-5.54654

>  <ref_pdb>  (48) 
x0434_0

>  <ref_mols>  (48) 
x0434_0

>  <creator>  (48) 
Will Poole

>  <energy minimised>  (48) 
True

$$$$
WPC0202_minimised.pdb
     RDKit          3D

 24 25  0  0  0  0  0  0  0  0999 V2000
    6.8470    0.7020   25.3860 C   0  0  0  0  0  0  0  0  0  0  0  0
    5.5090    0.3490   25.7980 O   0  0  0  0  0  0  0  0  0  0  0  0
    4.6470   -0.3320   24.9800 C   0  0  0  0  0  0  0  0  0  0  0  0
    3.4560   -0.4070   25.2330 O   0  0  0  0  0  0  0  0  0  0  0  0
    5.3090   -1.3850   24.0740 C   0  0  0  0  0  0  0  0  0  0  0  0
    5.8210   -0.8690   22.8100 O   0  0  0  0  0  0  0  0  0  0  0  0
    4.9870   -0.1940   21.9510 C   0  0  0  0  0  0  0  0  0  0  0  0
    3.8010   -0.0740   22.1960 O   0  0  0  0  0  0  0  0  0  0  0  0
    5.5190    0.0380   20.5540 C   0  0  0  0  0  0  0  0  0  0  0  0
    4.6850    0.6760   19.6070 C   0  0  0  0  0  0  0  0  0  0  0  0
    5.1100    0.8590   18.2810 C   0  0  0  0  0  0  0  0  0  0  0  0
    6.3020    0.4200   17.8320 N   0  0  0  0  0  0  0  0  0  0  0  0
    7.1460   -0.0990   18.7460 C   0  0  0  0  0  0  0  0  0  0  0  0
    6.8150   -0.3120   20.1050 C   0  0  0  0  0  0  0  0  0  0  0  0
    7.8180   -0.7990   20.9820 N   0  0  0  0  0  0  0  0  0  0  0  0
    8.9940   -0.1460   21.2230 C   0  0  0  0  0  0  0  0  0  0  0  0
    9.2660    0.9020   20.6790 O   0  0  0  0  0  0  0  0  0  0  0  0
    9.8330   -0.7820   22.0950 N   0  0  0  0  0  0  0  0  0  0  0  0
   11.1580   -0.3730   22.3440 C   0  0  0  0  0  0  0  0  0  0  0  0
   12.2050   -1.2540   22.0460 C   0  0  0  0  0  0  0  0  0  0  0  0
   13.5370   -0.8350   22.1760 C   0  0  0  0  0  0  0  0  0  0  0  0
   13.8210    0.4600   22.6390 C   0  0  0  0  0  0  0  0  0  0  0  0
   12.7720    1.3360   22.9580 C   0  0  0  0  0  0  0  0  0  0  0  0
   11.4400    0.9230   22.8030 C   0  0  0  0  0  0  0  0  0  0  0  0
  1  2  1  0
  2  3  1  0
  3  4  2  0
  3  5  1  0
  5  6  1  0
  6  7  1  0
  7  8  2  0
  7  9  1  0
  9 10  2  0
  9 14  1  0
 10 11  1  0
 11 12  2  0
 12 13  1  0
 13 14  2  0
 14 15  1  0
 15 16  1  0
 16 17  2  0
 16 18  1  0
 18 19  1  0
 19 20  2  0
 19 24  1  0
 20 21  1  0
 21 22  2  0
 22 23  1  0
 23 24  2  0
M  END
>  <original SMILES>  (49) 
COC(=O)COC(=O)c1ccncc1NC(=O)Nc1ccccc1

>  <AutoDock Predicted Affinity>  (49) 
-5.37943

>  <ref_pdb>  (49) 
x0434_0

>  <ref_mols>  (49) 
x0434_0

>  <creator>  (49) 
Will Poole

>  <energy minimised>  (49) 
True

$$$$
WPC0046_minimised.pdb
     RDKit          3D

 21 22  0  0  0  0  0  0  0  0999 V2000
    7.0880    0.9150   24.7330 C   0  0  0  0  0  0  0  0  0  0  0  0
    6.1390    1.1320   23.6680 O   0  0  0  0  0  0  0  0  0  0  0  0
    6.3490    2.1470   22.7710 C   0  0  0  0  0  0  0  0  0  0  0  0
    7.2570    2.9490   22.8790 O   0  0  0  0  0  0  0  0  0  0  0  0
    5.2050    2.2460   21.7530 C   0  0  0  0  0  0  0  0  0  0  0  0
    5.3560    1.5080   20.4080 C   0  0  0  0  0  0  0  0  0  0  0  0
    4.6770    2.0410   19.2980 C   0  0  0  0  0  0  0  0  0  0  0  0
    4.8870    1.5250   18.0100 C   0  0  0  0  0  0  0  0  0  0  0  0
    5.6640    0.4500   17.7680 N   0  0  0  0  0  0  0  0  0  0  0  0
    6.2920   -0.0920   18.8290 C   0  0  0  0  0  0  0  0  0  0  0  0
    6.1710    0.3820   20.1560 C   0  0  0  0  0  0  0  0  0  0  0  0
    7.0060   -0.1850   21.1530 N   0  0  0  0  0  0  0  0  0  0  0  0
    8.3690   -0.0710   21.1000 C   0  0  0  0  0  0  0  0  0  0  0  0
    8.9190    0.3900   20.1250 O   0  0  0  0  0  0  0  0  0  0  0  0
    9.0480   -0.4790   22.2130 N   0  0  0  0  0  0  0  0  0  0  0  0
   10.4240   -0.2360   22.4020 C   0  0  0  0  0  0  0  0  0  0  0  0
   11.3700   -1.1930   22.0090 C   0  0  0  0  0  0  0  0  0  0  0  0
   12.7430   -0.9030   22.0890 C   0  0  0  0  0  0  0  0  0  0  0  0
   13.1670    0.3400   22.5880 C   0  0  0  0  0  0  0  0  0  0  0  0
   12.2190    1.2970   22.9860 C   0  0  0  0  0  0  0  0  0  0  0  0
   10.8480    1.0110   22.8850 C   0  0  0  0  0  0  0  0  0  0  0  0
  1  2  1  0
  2  3  1  0
  3  4  2  0
  3  5  1  0
  5  6  1  0
  6  7  2  0
  6 11  1  0
  7  8  1  0
  8  9  2  0
  9 10  1  0
 10 11  2  0
 11 12  1  0
 12 13  1  0
 13 14  2  0
 13 15  1  0
 15 16  1  0
 16 17  2  0
 16 21  1  0
 17 18  1  0
 18 19  2  0
 19 20  1  0
 20 21  2  0
M  END
>  <original SMILES>  (50) 
COC(=O)Cc1ccncc1NC(=O)Nc1ccccc1

>  <AutoDock Predicted Affinity>  (50) 
-5.399258

>  <ref_pdb>  (50) 
x0434_0

>  <ref_mols>  (50) 
x0434_0

>  <creator>  (50) 
Will Poole

>  <energy minimised>  (50) 
True

$$$$
WPC0190_minimised.pdb
     RDKit          3D

 24 25  0  0  0  0  0  0  0  0999 V2000
    2.4070    4.2040   25.0250 C   0  0  0  0  0  0  0  0  0  0  0  0
    3.1900    3.3770   24.1610 O   0  0  0  0  0  0  0  0  0  0  0  0
    3.4820    2.1190   24.5440 C   0  0  0  0  0  0  0  0  0  0  0  0
    2.9070    1.5010   25.4180 O   0  0  0  0  0  0  0  0  0  0  0  0
    4.1780    1.4330   23.6120 N   0  0  0  0  0  0  0  0  0  0  0  0
    4.8430    1.8000   22.4820 C   0  0  0  0  0  0  0  0  0  0  0  0
    5.3320    3.3290   22.0570 S   0  0  0  0  0  0  0  0  0  0  0  0
    5.0540    0.6760   21.7270 N   0  0  0  0  0  0  0  0  0  0  0  0
    5.5180    0.6130   20.3960 C   0  0  0  0  0  0  0  0  0  0  0  0
    4.7830    1.2200   19.3680 C   0  0  0  0  0  0  0  0  0  0  0  0
    5.2340    1.1180   18.0450 C   0  0  0  0  0  0  0  0  0  0  0  0
    6.3440    0.4290   17.7060 N   0  0  0  0  0  0  0  0  0  0  0  0
    7.0870   -0.0890   18.7060 C   0  0  0  0  0  0  0  0  0  0  0  0
    6.7120   -0.0480   20.0670 C   0  0  0  0  0  0  0  0  0  0  0  0
    7.5960   -0.5330   21.0750 N   0  0  0  0  0  0  0  0  0  0  0  0
    8.8340    0.0110   21.2850 C   0  0  0  0  0  0  0  0  0  0  0  0
    9.2180    0.9610   20.6420 O   0  0  0  0  0  0  0  0  0  0  0  0
    9.6140   -0.6250   22.2120 N   0  0  0  0  0  0  0  0  0  0  0  0
   10.9710   -0.3070   22.4290 C   0  0  0  0  0  0  0  0  0  0  0  0
   11.9610   -1.2460   22.1080 C   0  0  0  0  0  0  0  0  0  0  0  0
   13.3190   -0.8990   22.1950 C   0  0  0  0  0  0  0  0  0  0  0  0
   13.6860    0.3820   22.6410 C   0  0  0  0  0  0  0  0  0  0  0  0
   12.6950    1.3160   22.9820 C   0  0  0  0  0  0  0  0  0  0  0  0
   11.3390    0.9750   22.8680 C   0  0  0  0  0  0  0  0  0  0  0  0
  1  2  1  0
  2  3  1  0
  3  4  2  0
  3  5  1  0
  5  6  1  0
  6  7  2  0
  6  8  1  0
  8  9  1  0
  9 10  2  0
  9 14  1  0
 10 11  1  0
 11 12  2  0
 12 13  1  0
 13 14  2  0
 14 15  1  0
 15 16  1  0
 16 17  2  0
 16 18  1  0
 18 19  1  0
 19 20  2  0
 19 24  1  0
 20 21  1  0
 21 22  2  0
 22 23  1  0
 23 24  2  0
M  END
>  <original SMILES>  (51) 
COC(=O)NC(=S)Nc1ccncc1NC(=O)Nc1ccccc1

>  <AutoDock Predicted Affinity>  (51) 
-5.27956

>  <ref_pdb>  (51) 
x0434_0

>  <ref_mols>  (51) 
x0434_0

>  <creator>  (51) 
Will Poole

>  <energy minimised>  (51) 
True

$$$$
WPC0088_minimised.pdb
     RDKit          3D

 21 22  0  0  0  0  0  0  0  0999 V2000
    7.2930    1.4670   24.0040 C   0  0  0  0  0  0  0  0  0  0  0  0
    6.0460    0.7610   23.8290 O   0  0  0  0  0  0  0  0  0  0  0  0
    5.4910    0.4970   22.6090 C   0  0  0  0  0  0  0  0  0  0  0  0
    4.6010   -0.3240   22.4640 O   0  0  0  0  0  0  0  0  0  0  0  0
    6.0560    1.1890   21.5690 N   0  0  0  0  0  0  0  0  0  0  0  0
    5.9220    0.8650   20.2090 C   0  0  0  0  0  0  0  0  0  0  0  0
    4.9990    1.5330   19.4020 C   0  0  0  0  0  0  0  0  0  0  0  0
    4.9570    1.2460   18.0320 C   0  0  0  0  0  0  0  0  0  0  0  0
    5.7500    0.3130   17.4610 N   0  0  0  0  0  0  0  0  0  0  0  0
    6.6350   -0.3280   18.2490 C   0  0  0  0  0  0  0  0  0  0  0  0
    6.7790   -0.0810   19.6240 C   0  0  0  0  0  0  0  0  0  0  0  0
    7.8360   -0.6930   20.3680 N   0  0  0  0  0  0  0  0  0  0  0  0
    8.8830   -0.0120   20.9420 C   0  0  0  0  0  0  0  0  0  0  0  0
    8.9700    1.1990   20.9020 O   0  0  0  0  0  0  0  0  0  0  0  0
    9.8250   -0.8180   21.5200 N   0  0  0  0  0  0  0  0  0  0  0  0
   11.1020   -0.4130   21.9730 C   0  0  0  0  0  0  0  0  0  0  0  0
   12.2030   -1.2130   21.6460 C   0  0  0  0  0  0  0  0  0  0  0  0
   13.5020   -0.8160   21.9920 C   0  0  0  0  0  0  0  0  0  0  0  0
   13.7040    0.3860   22.6880 C   0  0  0  0  0  0  0  0  0  0  0  0
   12.6030    1.1810   23.0400 C   0  0  0  0  0  0  0  0  0  0  0  0
   11.3040    0.7820   22.6870 C   0  0  0  0  0  0  0  0  0  0  0  0
  1  2  1  0
  2  3  1  0
  3  4  2  0
  3  5  1  0
  5  6  1  0
  6  7  2  0
  6 11  1  0
  7  8  1  0
  8  9  2  0
  9 10  1  0
 10 11  2  0
 11 12  1  0
 12 13  1  0
 13 14  2  0
 13 15  1  0
 15 16  1  0
 16 17  2  0
 16 21  1  0
 17 18  1  0
 18 19  2  0
 19 20  1  0
 20 21  2  0
M  END
>  <original SMILES>  (52) 
COC(=O)Nc1ccncc1NC(=O)Nc1ccccc1

>  <AutoDock Predicted Affinity>  (52) 
-5.753193

>  <ref_pdb>  (52) 
x0434_0

>  <ref_mols>  (52) 
x0434_0

>  <creator>  (52) 
Will Poole

>  <energy minimised>  (52) 
True

$$$$
WPC0218_minimised.pdb
     RDKit          3D

 22 23  0  0  0  0  0  0  0  0999 V2000
    7.8420    3.0680   22.3440 C   0  0  0  0  0  0  0  0  0  0  0  0
    6.8120    4.0610   22.4630 O   0  0  0  0  0  0  0  0  0  0  0  0
    5.5820    3.8300   21.7300 C   0  0  0  0  0  0  0  0  0  0  0  0
    4.7850    2.6180   22.2380 C   0  0  0  0  0  0  0  0  0  0  0  0
    4.3270    2.5120   23.3630 O   0  0  0  0  0  0  0  0  0  0  0  0
    4.6040    1.5350   21.4150 N   0  0  0  0  0  0  0  0  0  0  0  0
    5.0560    1.2860   20.1030 C   0  0  0  0  0  0  0  0  0  0  0  0
    4.4830    1.9410   19.0090 C   0  0  0  0  0  0  0  0  0  0  0  0
    4.9140    1.6200   17.7150 C   0  0  0  0  0  0  0  0  0  0  0  0
    5.8430    0.6720   17.4630 N   0  0  0  0  0  0  0  0  0  0  0  0
    6.4180    0.0700   18.5240 C   0  0  0  0  0  0  0  0  0  0  0  0
    6.0590    0.3370   19.8630 C   0  0  0  0  0  0  0  0  0  0  0  0
    6.8040   -0.2120   20.9490 N   0  0  0  0  0  0  0  0  0  0  0  0
    8.1640   -0.0660   21.0470 C   0  0  0  0  0  0  0  0  0  0  0  0
    8.8110    0.3970   20.1300 O   0  0  0  0  0  0  0  0  0  0  0  0
    8.7270   -0.4180   22.2450 N   0  0  0  0  0  0  0  0  0  0  0  0
   10.0900   -0.1920   22.5450 C   0  0  0  0  0  0  0  0  0  0  0  0
   11.0870   -0.8980   21.8520 C   0  0  0  0  0  0  0  0  0  0  0  0
   12.4420   -0.5690   22.0260 C   0  0  0  0  0  0  0  0  0  0  0  0
   12.8000    0.4740   22.8950 C   0  0  0  0  0  0  0  0  0  0  0  0
   11.8050    1.1690   23.6010 C   0  0  0  0  0  0  0  0  0  0  0  0
   10.4530    0.8280   23.4370 C   0  0  0  0  0  0  0  0  0  0  0  0
  1  2  1  0
  2  3  1  0
  3  4  1  0
  4  5  2  0
  4  6  1  0
  6  7  1  0
  7  8  2  0
  7 12  1  0
  8  9  1  0
  9 10  2  0
 10 11  1  0
 11 12  2  0
 12 13  1  0
 13 14  1  0
 14 15  2  0
 14 16  1  0
 16 17  1  0
 17 18  2  0
 17 22  1  0
 18 19  1  0
 19 20  2  0
 20 21  1  0
 21 22  2  0
M  END
>  <original SMILES>  (53) 
COCC(=O)Nc1ccncc1NC(=O)Nc1ccccc1

>  <AutoDock Predicted Affinity>  (53) 
-5.463875

>  <ref_pdb>  (53) 
x0434_0

>  <ref_mols>  (53) 
x0434_0

>  <creator>  (53) 
Will Poole

>  <energy minimised>  (53) 
True

$$$$
WPC0006_minimised.pdb
     RDKit          3D

 19 20  0  0  0  0  0  0  0  0999 V2000
    7.2600    3.3620   22.1790 C   0  0  0  0  0  0  0  0  0  0  0  0
    5.8270    3.3840   22.0460 O   0  0  0  0  0  0  0  0  0  0  0  0
    5.1780    2.1130   21.8640 C   0  0  0  0  0  0  0  0  0  0  0  0
    5.4310    1.5310   20.4710 C   0  0  0  0  0  0  0  0  0  0  0  0
    4.8080    2.0970   19.3430 C   0  0  0  0  0  0  0  0  0  0  0  0
    5.0840    1.5970   18.0580 C   0  0  0  0  0  0  0  0  0  0  0  0
    5.9130    0.5540   17.8330 N   0  0  0  0  0  0  0  0  0  0  0  0
    6.5320    0.0290   18.9090 C   0  0  0  0  0  0  0  0  0  0  0  0
    6.3190    0.4640   20.2380 C   0  0  0  0  0  0  0  0  0  0  0  0
    7.1270   -0.0550   21.2850 N   0  0  0  0  0  0  0  0  0  0  0  0
    8.4790    0.1560   21.3240 C   0  0  0  0  0  0  0  0  0  0  0  0
    9.0400    0.7530   20.4320 O   0  0  0  0  0  0  0  0  0  0  0  0
    9.1450   -0.3300   22.4160 N   0  0  0  0  0  0  0  0  0  0  0  0
   10.5350   -0.1540   22.5890 C   0  0  0  0  0  0  0  0  0  0  0  0
   11.4320   -1.1190   22.1040 C   0  0  0  0  0  0  0  0  0  0  0  0
   12.8150   -0.8700   22.1290 C   0  0  0  0  0  0  0  0  0  0  0  0
   13.3000    0.3420   22.6490 C   0  0  0  0  0  0  0  0  0  0  0  0
   12.4020    1.3050   23.1350 C   0  0  0  0  0  0  0  0  0  0  0  0
   11.0200    1.0580   23.1040 C   0  0  0  0  0  0  0  0  0  0  0  0
  1  2  1  0
  2  3  1  0
  3  4  1  0
  4  5  2  0
  4  9  1  0
  5  6  1  0
  6  7  2  0
  7  8  1  0
  8  9  2  0
  9 10  1  0
 10 11  1  0
 11 12  2  0
 11 13  1  0
 13 14  1  0
 14 15  2  0
 14 19  1  0
 15 16  1  0
 16 17  2  0
 17 18  1  0
 18 19  2  0
M  END
>  <original SMILES>  (54) 
COCc1ccncc1NC(=O)Nc1ccccc1

>  <AutoDock Predicted Affinity>  (54) 
-5.379707

>  <ref_pdb>  (54) 
x0434_0

>  <ref_mols>  (54) 
x0434_0

>  <creator>  (54) 
Will Poole

>  <energy minimised>  (54) 
True

$$$$
WPC0163_minimised.pdb
     RDKit          3D

 18 19  0  0  0  0  0  0  0  0999 V2000
    4.7520    3.6070   21.5510 C   0  0  0  0  0  0  0  0  0  0  0  0
    4.8380    2.1790   21.3660 O   0  0  0  0  0  0  0  0  0  0  0  0
    5.0860    1.6550   20.1160 C   0  0  0  0  0  0  0  0  0  0  0  0
    4.4660    2.1690   18.9720 C   0  0  0  0  0  0  0  0  0  0  0  0
    4.8250    1.6780   17.7120 C   0  0  0  0  0  0  0  0  0  0  0  0
    5.6890    0.6550   17.5390 N   0  0  0  0  0  0  0  0  0  0  0  0
    6.2790    0.1560   18.6440 C   0  0  0  0  0  0  0  0  0  0  0  0
    6.0240    0.6260   19.9500 C   0  0  0  0  0  0  0  0  0  0  0  0
    6.8030    0.1860   21.0580 N   0  0  0  0  0  0  0  0  0  0  0  0
    8.1710    0.1490   21.0500 C   0  0  0  0  0  0  0  0  0  0  0  0
    8.7990    0.2930   20.0220 O   0  0  0  0  0  0  0  0  0  0  0  0
    8.7690   -0.0200   22.2690 N   0  0  0  0  0  0  0  0  0  0  0  0
   10.1640    0.0830   22.4730 C   0  0  0  0  0  0  0  0  0  0  0  0
   11.0370   -0.8450   21.8820 C   0  0  0  0  0  0  0  0  0  0  0  0
   12.4280   -0.6750   21.9860 C   0  0  0  0  0  0  0  0  0  0  0  0
   12.9470    0.4260   22.6860 C   0  0  0  0  0  0  0  0  0  0  0  0
   12.0750    1.3510   23.2800 C   0  0  0  0  0  0  0  0  0  0  0  0
   10.6850    1.1770   23.1790 C   0  0  0  0  0  0  0  0  0  0  0  0
  1  2  1  0
  2  3  1  0
  3  4  2  0
  3  8  1  0
  4  5  1  0
  5  6  2  0
  6  7  1  0
  7  8  2  0
  8  9  1  0
  9 10  1  0
 10 11  2  0
 10 12  1  0
 12 13  1  0
 13 14  2  0
 13 18  1  0
 14 15  1  0
 15 16  2  0
 16 17  1  0
 17 18  2  0
M  END
>  <original SMILES>  (55) 
COc1ccncc1NC(=O)Nc1ccccc1

>  <AutoDock Predicted Affinity>  (55) 
-5.34181

>  <ref_pdb>  (55) 
x0434_0

>  <ref_mols>  (55) 
x0434_0

>  <creator>  (55) 
Will Poole

>  <energy minimised>  (55) 
True

$$$$
WPC0208_minimised.pdb
     RDKit          3D

 21 22  0  0  0  0  0  0  0  0999 V2000
    7.0240    3.9050   21.8010 C   0  0  0  0  0  0  0  0  0  0  0  0
    5.5010    3.1250   22.2320 S   0  0  0  0  0  0  0  0  0  0  0  0
    4.5940    4.1040   22.7560 O   0  0  0  0  0  0  0  0  0  0  0  0
    5.7920    1.9600   23.0450 O   0  0  0  0  0  0  0  0  0  0  0  0
    4.7100    2.6250   20.8650 N   0  0  0  0  0  0  0  0  0  0  0  0
    5.0610    1.7950   19.8130 C   0  0  0  0  0  0  0  0  0  0  0  0
    4.4610    2.1130   18.5970 C   0  0  0  0  0  0  0  0  0  0  0  0
    4.8830    1.4940   17.4250 C   0  0  0  0  0  0  0  0  0  0  0  0
    5.7740    0.4860   17.4040 N   0  0  0  0  0  0  0  0  0  0  0  0
    6.3040    0.1180   18.5890 C   0  0  0  0  0  0  0  0  0  0  0  0
    5.9970    0.7410   19.8190 C   0  0  0  0  0  0  0  0  0  0  0  0
    6.7080    0.3670   20.9870 N   0  0  0  0  0  0  0  0  0  0  0  0
    8.0690    0.3600   21.0800 C   0  0  0  0  0  0  0  0  0  0  0  0
    8.7700    0.5200   20.1020 O   0  0  0  0  0  0  0  0  0  0  0  0
    8.5610    0.2380   22.3460 N   0  0  0  0  0  0  0  0  0  0  0  0
    9.9150    0.4490   22.6800 C   0  0  0  0  0  0  0  0  0  0  0  0
   10.9290   -0.3160   22.0770 C   0  0  0  0  0  0  0  0  0  0  0  0
   12.2800   -0.0150   22.3200 C   0  0  0  0  0  0  0  0  0  0  0  0
   12.6150    1.0560   23.1650 C   0  0  0  0  0  0  0  0  0  0  0  0
   11.6010    1.8180   23.7660 C   0  0  0  0  0  0  0  0  0  0  0  0
   10.2520    1.5070   23.5350 C   0  0  0  0  0  0  0  0  0  0  0  0
  1  2  1  0
  2  3  2  0
  2  4  2  0
  2  5  1  0
  5  6  1  0
  6  7  2  0
  6 11  1  0
  7  8  1  0
  8  9  2  0
  9 10  1  0
 10 11  2  0
 11 12  1  0
 12 13  1  0
 13 14  2  0
 13 15  1  0
 15 16  1  0
 16 17  2  0
 16 21  1  0
 17 18  1  0
 18 19  2  0
 19 20  1  0
 20 21  2  0
M  END
>  <original SMILES>  (56) 
CS(=O)(=O)Nc1ccncc1NC(=O)Nc1ccccc1

>  <AutoDock Predicted Affinity>  (56) 
-5.732135

>  <ref_pdb>  (56) 
x0434_0

>  <ref_mols>  (56) 
x0434_0

>  <creator>  (56) 
Will Poole

>  <energy minimised>  (56) 
True

$$$$
WPC0179_minimised.pdb
     RDKit          3D

 21 22  0  0  0  0  0  0  0  0999 V2000
    6.4920    0.9090   23.9310 C   0  0  0  0  0  0  0  0  0  0  0  0
    5.4910    1.7820   22.7640 S   0  0  0  0  0  0  0  0  0  0  0  0
    4.2660    2.0950   23.4830 O   0  0  0  0  0  0  0  0  0  0  0  0
    6.3510    2.7830   22.1840 O   0  0  0  0  0  0  0  0  0  0  0  0
    5.2320    0.5000   21.8040 O   0  0  0  0  0  0  0  0  0  0  0  0
    5.5790    0.5240   20.4840 C   0  0  0  0  0  0  0  0  0  0  0  0
    4.7840    1.1890   19.5450 C   0  0  0  0  0  0  0  0  0  0  0  0
    5.1250    1.1180   18.1870 C   0  0  0  0  0  0  0  0  0  0  0  0
    6.1810    0.4060   17.7350 N   0  0  0  0  0  0  0  0  0  0  0  0
    6.9770   -0.1780   18.6540 C   0  0  0  0  0  0  0  0  0  0  0  0
    6.7070   -0.1760   20.0370 C   0  0  0  0  0  0  0  0  0  0  0  0
    7.6410   -0.7270   20.9620 N   0  0  0  0  0  0  0  0  0  0  0  0
    8.8640   -0.1520   21.1940 C   0  0  0  0  0  0  0  0  0  0  0  0
    9.1980    0.8620   20.6240 O   0  0  0  0  0  0  0  0  0  0  0  0
    9.6740   -0.8040   22.0840 N   0  0  0  0  0  0  0  0  0  0  0  0
   11.0110   -0.4290   22.3380 C   0  0  0  0  0  0  0  0  0  0  0  0
   12.0400   -1.3370   22.0570 C   0  0  0  0  0  0  0  0  0  0  0  0
   13.3830   -0.9440   22.1780 C   0  0  0  0  0  0  0  0  0  0  0  0
   13.6950    0.3500   22.6250 C   0  0  0  0  0  0  0  0  0  0  0  0
   12.6650    1.2520   22.9360 C   0  0  0  0  0  0  0  0  0  0  0  0
   11.3240    0.8660   22.7830 C   0  0  0  0  0  0  0  0  0  0  0  0
  1  2  1  0
  2  3  2  0
  2  4  2  0
  2  5  1  0
  5  6  1  0
  6  7  2  0
  6 11  1  0
  7  8  1  0
  8  9  2  0
  9 10  1  0
 10 11  2  0
 11 12  1  0
 12 13  1  0
 13 14  2  0
 13 15  1  0
 15 16  1  0
 16 17  2  0
 16 21  1  0
 17 18  1  0
 18 19  2  0
 19 20  1  0
 20 21  2  0
M  END
>  <original SMILES>  (57) 
CS(=O)(=O)Oc1ccncc1NC(=O)Nc1ccccc1

>  <AutoDock Predicted Affinity>  (57) 
-5.426255

>  <ref_pdb>  (57) 
x0434_0

>  <ref_mols>  (57) 
x0434_0

>  <creator>  (57) 
Will Poole

>  <energy minimised>  (57) 
True

$$$$
WPC0185_minimised.pdb
     RDKit          3D

 18 19  0  0  0  0  0  0  0  0999 V2000
    4.0220    4.0320   21.5350 C   0  0  0  0  0  0  0  0  0  0  0  0
    4.6770    2.3290   21.8070 S   0  0  0  0  0  0  0  0  0  0  0  0
    5.0430    1.6820   20.1740 C   0  0  0  0  0  0  0  0  0  0  0  0
    4.4460    2.2160   19.0220 C   0  0  0  0  0  0  0  0  0  0  0  0
    4.8140    1.7330   17.7580 C   0  0  0  0  0  0  0  0  0  0  0  0
    5.6800    0.7120   17.5790 N   0  0  0  0  0  0  0  0  0  0  0  0
    6.2620    0.2070   18.6850 C   0  0  0  0  0  0  0  0  0  0  0  0
    5.9900    0.6610   19.9950 C   0  0  0  0  0  0  0  0  0  0  0  0
    6.7600    0.1990   21.0970 N   0  0  0  0  0  0  0  0  0  0  0  0
    8.1290    0.1960   21.1040 C   0  0  0  0  0  0  0  0  0  0  0  0
    8.7630    0.4180   20.0940 O   0  0  0  0  0  0  0  0  0  0  0  0
    8.7190   -0.0410   22.3150 N   0  0  0  0  0  0  0  0  0  0  0  0
   10.1110    0.0710   22.5310 C   0  0  0  0  0  0  0  0  0  0  0  0
   10.9970   -0.8220   21.9080 C   0  0  0  0  0  0  0  0  0  0  0  0
   12.3850   -0.6320   22.0140 C   0  0  0  0  0  0  0  0  0  0  0  0
   12.8880    0.4560   22.7470 C   0  0  0  0  0  0  0  0  0  0  0  0
   12.0010    1.3460   23.3740 C   0  0  0  0  0  0  0  0  0  0  0  0
   10.6140    1.1510   23.2720 C   0  0  0  0  0  0  0  0  0  0  0  0
  1  2  1  0
  2  3  1  0
  3  4  2  0
  3  8  1  0
  4  5  1  0
  5  6  2  0
  6  7  1  0
  7  8  2  0
  8  9  1  0
  9 10  1  0
 10 11  2  0
 10 12  1  0
 12 13  1  0
 13 14  2  0
 13 18  1  0
 14 15  1  0
 15 16  2  0
 16 17  1  0
 17 18  2  0
M  END
>  <original SMILES>  (58) 
CSc1ccncc1NC(=O)Nc1ccccc1

>  <AutoDock Predicted Affinity>  (58) 
-4.86415

>  <ref_pdb>  (58) 
x0434_0

>  <ref_mols>  (58) 
x0434_0

>  <creator>  (58) 
Will Poole

>  <energy minimised>  (58) 
True

$$$$
WPC0030_minimised.pdb
     RDKit          3D

 24 26  0  0  0  0  0  0  0  0999 V2000
    2.4380    4.0440   25.0300 C   0  0  0  0  0  0  0  0  0  0  0  0
    3.2580    3.1480   24.1310 C   0  0  0  0  0  0  0  0  0  0  0  0
    3.6580    1.8760   24.5730 C   0  0  0  0  0  0  0  0  0  0  0  0
    4.4660    1.0720   23.7530 C   0  0  0  0  0  0  0  0  0  0  0  0
    4.8420    1.5120   22.4740 C   0  0  0  0  0  0  0  0  0  0  0  0
    5.5900    0.6660   21.6690 N   0  0  0  0  0  0  0  0  0  0  0  0
    5.7380    0.5610   20.2950 C   0  0  0  0  0  0  0  0  0  0  0  0
    4.8690    1.1680   19.3800 C   0  0  0  0  0  0  0  0  0  0  0  0
    5.0930    1.0130   18.0100 C   0  0  0  0  0  0  0  0  0  0  0  0
    6.0840    0.2460   17.5190 N   0  0  0  0  0  0  0  0  0  0  0  0
    6.9240   -0.3300   18.3990 C   0  0  0  0  0  0  0  0  0  0  0  0
    6.7880   -0.2230   19.7920 C   0  0  0  0  0  0  0  0  0  0  0  0
    7.7800   -0.7820   20.6570 N   0  0  0  0  0  0  0  0  0  0  0  0
    8.8990   -0.0960   21.0630 C   0  0  0  0  0  0  0  0  0  0  0  0
    9.0780    1.0680   20.7750 O   0  0  0  0  0  0  0  0  0  0  0  0
    9.7990   -0.8430   21.7730 N   0  0  0  0  0  0  0  0  0  0  0  0
   11.1010   -0.4210   22.1230 C   0  0  0  0  0  0  0  0  0  0  0  0
   12.1820   -1.2510   21.8050 C   0  0  0  0  0  0  0  0  0  0  0  0
   13.4970   -0.8320   22.0500 C   0  0  0  0  0  0  0  0  0  0  0  0
   13.7330    0.4200   22.6420 C   0  0  0  0  0  0  0  0  0  0  0  0
   12.6500    1.2470   22.9810 C   0  0  0  0  0  0  0  0  0  0  0  0
   11.3360    0.8280   22.7210 C   0  0  0  0  0  0  0  0  0  0  0  0
    4.4900    2.8070   22.0640 C   0  0  0  0  0  0  0  0  0  0  0  0
    3.6950    3.6190   22.8820 C   0  0  0  0  0  0  0  0  0  0  0  0
  1  2  1  0
  2  3  2  0
  2 24  1  0
  3  4  1  0
  4  5  2  0
  5 23  1  0
  5  6  1  0
  6  7  1  0
  7  8  2  0
  7 12  1  0
  8  9  1  0
  9 10  2  0
 10 11  1  0
 11 12  2  0
 12 13  1  0
 13 14  1  0
 14 15  2  0
 14 16  1  0
 16 17  1  0
 17 18  2  0
 17 22  1  0
 18 19  1  0
 19 20  2  0
 20 21  1  0
 21 22  2  0
 23 24  2  0
M  END
>  <original SMILES>  (59) 
Cc1ccc(Nc2ccncc2NC(=O)Nc2ccccc2)cc1

>  <AutoDock Predicted Affinity>  (59) 
-6.036153

>  <ref_pdb>  (59) 
x0434_0

>  <ref_mols>  (59) 
x0434_0

>  <creator>  (59) 
Will Poole

>  <energy minimised>  (59) 
True

$$$$
WPC0161_minimised.pdb
     RDKit          3D

 17 18  0  0  0  0  0  0  0  0999 V2000
    4.8480    2.4410   21.3620 C   0  0  0  0  0  0  0  0  0  0  0  0
    5.1040    1.6880   20.0630 C   0  0  0  0  0  0  0  0  0  0  0  0
    4.4930    2.1520   18.8910 C   0  0  0  0  0  0  0  0  0  0  0  0
    4.8430    1.6070   17.6500 C   0  0  0  0  0  0  0  0  0  0  0  0
    5.6890    0.5630   17.5160 N   0  0  0  0  0  0  0  0  0  0  0  0
    6.2630    0.0970   18.6430 C   0  0  0  0  0  0  0  0  0  0  0  0
    6.0220    0.6280   19.9330 C   0  0  0  0  0  0  0  0  0  0  0  0
    6.7970    0.1970   21.0450 N   0  0  0  0  0  0  0  0  0  0  0  0
    8.1650    0.1470   21.0370 C   0  0  0  0  0  0  0  0  0  0  0  0
    8.7960    0.2860   20.0100 O   0  0  0  0  0  0  0  0  0  0  0  0
    8.7590   -0.0250   22.2570 N   0  0  0  0  0  0  0  0  0  0  0  0
   10.1530    0.0760   22.4650 C   0  0  0  0  0  0  0  0  0  0  0  0
   11.0270   -0.8580   21.8850 C   0  0  0  0  0  0  0  0  0  0  0  0
   12.4170   -0.6880   21.9930 C   0  0  0  0  0  0  0  0  0  0  0  0
   12.9350    0.4190   22.6850 C   0  0  0  0  0  0  0  0  0  0  0  0
   12.0610    1.3500   23.2690 C   0  0  0  0  0  0  0  0  0  0  0  0
   10.6720    1.1760   23.1640 C   0  0  0  0  0  0  0  0  0  0  0  0
  1  2  1  0
  2  3  2  0
  2  7  1  0
  3  4  1  0
  4  5  2  0
  5  6  1  0
  6  7  2  0
  7  8  1  0
  8  9  1  0
  9 10  2  0
  9 11  1  0
 11 12  1  0
 12 13  2  0
 12 17  1  0
 13 14  1  0
 14 15  2  0
 15 16  1  0
 16 17  2  0
M  END
>  <original SMILES>  (60) 
Cc1ccncc1NC(=O)Nc1ccccc1

>  <AutoDock Predicted Affinity>  (60) 
-5.51824

>  <ref_pdb>  (60) 
x0434_0

>  <ref_mols>  (60) 
x0434_0

>  <creator>  (60) 
Will Poole

>  <energy minimised>  (60) 
True

$$$$
WPC0142_minimised.pdb
     RDKit          3D

 20 21  0  0  0  0  0  0  0  0999 V2000
    4.6030    4.2370   22.4470 N   0  0  0  0  0  0  0  0  0  0  0  0
    4.8540    2.9710   22.0530 C   0  0  0  0  0  0  0  0  0  0  0  0
    5.0400    2.0500   22.8260 O   0  0  0  0  0  0  0  0  0  0  0  0
    4.8430    2.8910   20.7010 N   0  0  0  0  0  0  0  0  0  0  0  0
    5.0180    1.8240   19.8000 C   0  0  0  0  0  0  0  0  0  0  0  0
    4.3370    1.9560   18.5930 C   0  0  0  0  0  0  0  0  0  0  0  0
    4.6500    1.1150   17.5310 C   0  0  0  0  0  0  0  0  0  0  0  0
    5.5330    0.1030   17.6220 N   0  0  0  0  0  0  0  0  0  0  0  0
    6.1730   -0.0460   18.8020 C   0  0  0  0  0  0  0  0  0  0  0  0
    5.9790    0.8050   19.9170 C   0  0  0  0  0  0  0  0  0  0  0  0
    6.8160    0.7380   21.0660 N   0  0  0  0  0  0  0  0  0  0  0  0
    8.1720    0.5360   21.0370 C   0  0  0  0  0  0  0  0  0  0  0  0
    8.7500    0.2180   20.0190 O   0  0  0  0  0  0  0  0  0  0  0  0
    8.8200    0.7530   22.2220 N   0  0  0  0  0  0  0  0  0  0  0  0
   10.2210    0.6900   22.3950 C   0  0  0  0  0  0  0  0  0  0  0  0
   10.9430   -0.4500   21.9980 C   0  0  0  0  0  0  0  0  0  0  0  0
   12.3410   -0.4820   22.1220 C   0  0  0  0  0  0  0  0  0  0  0  0
   13.0210    0.6270   22.6510 C   0  0  0  0  0  0  0  0  0  0  0  0
   12.3020    1.7680   23.0420 C   0  0  0  0  0  0  0  0  0  0  0  0
   10.9030    1.7980   22.9190 C   0  0  0  0  0  0  0  0  0  0  0  0
  1  2  1  0
  2  3  2  0
  2  4  1  0
  4  5  1  0
  5  6  2  0
  5 10  1  0
  6  7  1  0
  7  8  2  0
  8  9  1  0
  9 10  2  0
 10 11  1  0
 11 12  1  0
 12 13  2  0
 12 14  1  0
 14 15  1  0
 15 16  2  0
 15 20  1  0
 16 17  1  0
 17 18  2  0
 18 19  1  0
 19 20  2  0
M  END
>  <original SMILES>  (61) 
NC(=O)Nc1ccncc1NC(=O)Nc1ccccc1

>  <AutoDock Predicted Affinity>  (61) 
-5.77142

>  <ref_pdb>  (61) 
x0434_0

>  <ref_mols>  (61) 
x0434_0

>  <creator>  (61) 
Will Poole

>  <energy minimised>  (61) 
True

$$$$
WPC0159_minimised.pdb
     RDKit          3D

 18 19  0  0  0  0  0  0  0  0999 V2000
    5.3840    3.6810   21.5350 N   0  0  0  0  0  0  0  0  0  0  0  0
    4.5410    2.5160   21.2850 C   0  0  0  0  0  0  0  0  0  0  0  0
    4.9180    1.8280   19.9780 C   0  0  0  0  0  0  0  0  0  0  0  0
    4.3440    2.2850   18.7830 C   0  0  0  0  0  0  0  0  0  0  0  0
    4.7710    1.7720   17.5530 C   0  0  0  0  0  0  0  0  0  0  0  0
    5.6540    0.7570   17.4440 N   0  0  0  0  0  0  0  0  0  0  0  0
    6.2070    0.3090   18.5900 C   0  0  0  0  0  0  0  0  0  0  0  0
    5.9020    0.8250   19.8730 C   0  0  0  0  0  0  0  0  0  0  0  0
    6.6600    0.4360   21.0110 N   0  0  0  0  0  0  0  0  0  0  0  0
    8.0270    0.3410   21.0240 C   0  0  0  0  0  0  0  0  0  0  0  0
    8.6830    0.3670   20.0040 O   0  0  0  0  0  0  0  0  0  0  0  0
    8.5940    0.2390   22.2630 N   0  0  0  0  0  0  0  0  0  0  0  0
    9.9870    0.3010   22.4900 C   0  0  0  0  0  0  0  0  0  0  0  0
   10.8410   -0.6770   21.9530 C   0  0  0  0  0  0  0  0  0  0  0  0
   12.2330   -0.5550   22.0960 C   0  0  0  0  0  0  0  0  0  0  0  0
   12.7720    0.5470   22.7790 C   0  0  0  0  0  0  0  0  0  0  0  0
   11.9180    1.5260   23.3130 C   0  0  0  0  0  0  0  0  0  0  0  0
   10.5270    1.4000   23.1740 C   0  0  0  0  0  0  0  0  0  0  0  0
  1  2  1  0
  2  3  1  0
  3  4  2  0
  3  8  1  0
  4  5  1  0
  5  6  2  0
  6  7  1  0
  7  8  2  0
  8  9  1  0
  9 10  1  0
 10 11  2  0
 10 12  1  0
 12 13  1  0
 13 14  2  0
 13 18  1  0
 14 15  1  0
 15 16  2  0
 16 17  1  0
 17 18  2  0
M  END
>  <original SMILES>  (62) 
NCc1ccncc1NC(=O)Nc1ccccc1

>  <AutoDock Predicted Affinity>  (62) 
-5.33221

>  <ref_pdb>  (62) 
x0434_0

>  <ref_mols>  (62) 
x0434_0

>  <creator>  (62) 
Will Poole

>  <energy minimised>  (62) 
True

$$$$
WPC0051_minimised.pdb
     RDKit          3D

 17 18  0  0  0  0  0  0  0  0999 V2000
    4.9520    2.5930   20.9500 N   0  0  0  0  0  0  0  0  0  0  0  0
    5.0990    1.7600   19.8660 C   0  0  0  0  0  0  0  0  0  0  0  0
    4.4470    2.1120   18.6930 C   0  0  0  0  0  0  0  0  0  0  0  0
    4.8020    1.4900   17.5000 C   0  0  0  0  0  0  0  0  0  0  0  0
    5.6580    0.4510   17.4370 N   0  0  0  0  0  0  0  0  0  0  0  0
    6.2420    0.0670   18.5910 C   0  0  0  0  0  0  0  0  0  0  0  0
    6.0140    0.6980   19.8330 C   0  0  0  0  0  0  0  0  0  0  0  0
    6.7850    0.3600   20.9850 N   0  0  0  0  0  0  0  0  0  0  0  0
    8.1480    0.2260   20.9890 C   0  0  0  0  0  0  0  0  0  0  0  0
    8.7900    0.2640   19.9610 O   0  0  0  0  0  0  0  0  0  0  0  0
    8.7210    0.0930   22.2240 N   0  0  0  0  0  0  0  0  0  0  0  0
   10.1150    0.1390   22.4500 C   0  0  0  0  0  0  0  0  0  0  0  0
   10.9660   -0.8050   21.8520 C   0  0  0  0  0  0  0  0  0  0  0  0
   12.3600   -0.6850   21.9840 C   0  0  0  0  0  0  0  0  0  0  0  0
   12.9040    0.3800   22.7190 C   0  0  0  0  0  0  0  0  0  0  0  0
   12.0530    1.3180   23.3250 C   0  0  0  0  0  0  0  0  0  0  0  0
   10.6600    1.1950   23.1960 C   0  0  0  0  0  0  0  0  0  0  0  0
  1  2  1  0
  2  3  2  0
  2  7  1  0
  3  4  1  0
  4  5  2  0
  5  6  1  0
  6  7  2  0
  7  8  1  0
  8  9  1  0
  9 10  2  0
  9 11  1  0
 11 12  1  0
 12 13  2  0
 12 17  1  0
 13 14  1  0
 14 15  2  0
 15 16  1  0
 16 17  2  0
M  END
>  <original SMILES>  (63) 
Nc1ccncc1NC(=O)Nc1ccccc1

>  <AutoDock Predicted Affinity>  (63) 
-5.58289

>  <ref_pdb>  (63) 
x0434_0

>  <ref_mols>  (63) 
x0434_0

>  <creator>  (63) 
Will Poole

>  <energy minimised>  (63) 
True

$$$$
WPC0065_minimised.pdb
     RDKit          3D

 24 26  0  0  1  0  0  0  0  0999 V2000
    8.8400    0.3220   19.9110 O   0  0  0  0  0  0  0  0  0  0  0  0
    8.1990   -0.0820   20.8580 C   0  0  0  0  0  0  0  0  0  0  0  0
    8.7720   -0.6000   21.9860 N   0  0  0  0  0  0  0  0  0  0  0  0
   10.1600   -0.5970   22.2370 C   0  0  0  0  0  0  0  0  0  0  0  0
   10.8310   -1.7940   22.5250 C   0  0  0  0  0  0  0  0  0  0  0  0
   12.2230   -1.7890   22.7070 C   0  0  0  0  0  0  0  0  0  0  0  0
   12.9440   -0.5860   22.6130 C   0  0  0  0  0  0  0  0  0  0  0  0
   12.2670    0.6170   22.3750 C   0  0  0  0  0  0  0  0  0  0  0  0
   10.8800    0.6090   22.1700 C   0  0  0  0  0  0  0  0  0  0  0  0
    6.8310   -0.0480   20.8570 N   0  0  0  0  0  0  0  0  0  0  0  0
    6.0850    0.5620   19.8190 C   0  0  0  0  0  0  0  0  0  0  0  0
    6.3010    0.1170   18.4950 C   0  0  0  0  0  0  0  0  0  0  0  0
    5.7300    0.6650   17.4080 N   0  0  0  0  0  0  0  0  0  0  0  0
    4.8950    1.7000   17.6240 C   0  0  0  0  0  0  0  0  0  0  0  0
    4.5780    2.1720   18.9020 C   0  0  0  0  0  0  0  0  0  0  0  0
    5.2250    1.6620   20.0480 C   0  0  0  0  0  0  0  0  0  0  0  0
    5.0230    2.3170   21.4350 C   0  0  2  0  0  0  0  0  0  0  0  0
    4.1040    3.4090   21.3570 O   0  0  0  0  0  0  0  0  0  0  0  0
    6.3160    2.7780   22.1290 C   0  0  0  0  0  0  0  0  0  0  0  0
    6.9120    4.0160   21.8190 C   0  0  0  0  0  0  0  0  0  0  0  0
    8.1510    4.3820   22.3660 C   0  0  0  0  0  0  0  0  0  0  0  0
    8.8120    3.5160   23.2450 C   0  0  0  0  0  0  0  0  0  0  0  0
    8.2010    2.3100   23.6190 C   0  0  0  0  0  0  0  0  0  0  0  0
    6.9460    1.9640   23.0920 C   0  0  0  0  0  0  0  0  0  0  0  0
  1  2  2  0
  2  3  1  0
  2 10  1  0
  3  4  1  0
  4  5  2  0
  4  9  1  0
  5  6  1  0
  6  7  2  0
  7  8  1  0
  8  9  2  0
 10 11  1  0
 11 12  2  0
 11 16  1  0
 12 13  1  0
 13 14  2  0
 14 15  1  0
 15 16  2  0
 16 17  1  0
 17 18  1  6
 17 19  1  0
 19 20  2  0
 19 24  1  0
 20 21  1  0
 21 22  2  0
 22 23  1  0
 23 24  2  0
M  END
>  <original SMILES>  (64) 
O=C(Nc1ccccc1)Nc1cnccc1C(O)c1ccccc1

>  <AutoDock Predicted Affinity>  (64) 
-5.94542

>  <ref_pdb>  (64) 
x0434_0

>  <ref_mols>  (64) 
x0434_0

>  <creator>  (64) 
Will Poole

>  <energy minimised>  (64) 
True

$$$$
WPC0104_minimised.pdb
     RDKit          3D

 24 26  0  0  0  0  0  0  0  0999 V2000
    9.1400    0.9450   20.7350 O   0  0  0  0  0  0  0  0  0  0  0  0
    8.9250   -0.1570   21.1950 C   0  0  0  0  0  0  0  0  0  0  0  0
    9.8090   -0.8300   21.9930 N   0  0  0  0  0  0  0  0  0  0  0  0
   11.1310   -0.4110   22.2540 C   0  0  0  0  0  0  0  0  0  0  0  0
   12.1850   -1.2680   21.9210 C   0  0  0  0  0  0  0  0  0  0  0  0
   13.5150   -0.8530   22.0850 C   0  0  0  0  0  0  0  0  0  0  0  0
   13.7890    0.4190   22.6140 C   0  0  0  0  0  0  0  0  0  0  0  0
   12.7330    1.2730   22.9670 C   0  0  0  0  0  0  0  0  0  0  0  0
   11.4030    0.8620   22.7800 C   0  0  0  0  0  0  0  0  0  0  0  0
    7.7840   -0.8580   20.9010 N   0  0  0  0  0  0  0  0  0  0  0  0
    6.8050   -0.3890   19.9840 C   0  0  0  0  0  0  0  0  0  0  0  0
    7.1600   -0.1680   18.6350 C   0  0  0  0  0  0  0  0  0  0  0  0
    6.3460    0.4070   17.7290 N   0  0  0  0  0  0  0  0  0  0  0  0
    5.1600    0.8710   18.1700 C   0  0  0  0  0  0  0  0  0  0  0  0
    4.7160    0.6810   19.4880 C   0  0  0  0  0  0  0  0  0  0  0  0
    5.5360    0.0220   20.4250 C   0  0  0  0  0  0  0  0  0  0  0  0
    5.1120   -0.1320   21.8420 C   0  0  0  0  0  0  0  0  0  0  0  0
    4.4510    0.7680   22.6090 C   0  0  0  0  0  0  0  0  0  0  0  0
    4.0670    2.1350   22.2100 C   0  0  0  0  0  0  0  0  0  0  0  0
    5.0510    2.9960   21.6940 C   0  0  0  0  0  0  0  0  0  0  0  0
    4.6900    4.2410   21.1650 C   0  0  0  0  0  0  0  0  0  0  0  0
    3.3450    4.6300   21.1440 C   0  0  0  0  0  0  0  0  0  0  0  0
    2.3600    3.7890   21.6880 C   0  0  0  0  0  0  0  0  0  0  0  0
    2.7220    2.5440   22.2290 C   0  0  0  0  0  0  0  0  0  0  0  0
  1  2  2  0
  2  3  1  0
  2 10  1  0
  3  4  1  0
  4  5  2  0
  4  9  1  0
  5  6  1  0
  6  7  2  0
  7  8  1  0
  8  9  2  0
 10 11  1  0
 11 12  2  0
 11 16  1  0
 12 13  1  0
 13 14  2  0
 14 15  1  0
 15 16  2  0
 16 17  1  0
 17 18  2  0
 18 19  1  0
 19 20  2  0
 19 24  1  0
 20 21  1  0
 21 22  2  0
 22 23  1  0
 23 24  2  0
M  END
>  <original SMILES>  (65) 
O=C(Nc1ccccc1)Nc1cnccc1C=Cc1ccccc1

>  <AutoDock Predicted Affinity>  (65) 
-6.04041

>  <ref_pdb>  (65) 
x0434_0

>  <ref_mols>  (65) 
x0434_0

>  <creator>  (65) 
Will Poole

>  <energy minimised>  (65) 
True

$$$$
WPC0022_minimised.pdb
     RDKit          3D

 19 20  0  0  0  0  0  0  0  0999 V2000
    8.7340    0.3310   20.0070 O   0  0  0  0  0  0  0  0  0  0  0  0
    8.1360    0.3280   21.0630 C   0  0  0  0  0  0  0  0  0  0  0  0
    8.7590    0.2600   22.2760 N   0  0  0  0  0  0  0  0  0  0  0  0
   10.1580    0.3200   22.4500 C   0  0  0  0  0  0  0  0  0  0  0  0
   10.9890   -0.6720   21.9040 C   0  0  0  0  0  0  0  0  0  0  0  0
   12.3850   -0.5620   22.0130 C   0  0  0  0  0  0  0  0  0  0  0  0
   12.9500    0.5430   22.6710 C   0  0  0  0  0  0  0  0  0  0  0  0
   12.1180    1.5350   23.2130 C   0  0  0  0  0  0  0  0  0  0  0  0
   10.7230    1.4210   23.1090 C   0  0  0  0  0  0  0  0  0  0  0  0
    6.7730    0.4290   21.1170 N   0  0  0  0  0  0  0  0  0  0  0  0
    5.9700    0.8390   20.0220 C   0  0  0  0  0  0  0  0  0  0  0  0
    6.1450    0.2610   18.7430 C   0  0  0  0  0  0  0  0  0  0  0  0
    5.5240    0.6980   17.6300 N   0  0  0  0  0  0  0  0  0  0  0  0
    4.6980    1.7560   17.7710 C   0  0  0  0  0  0  0  0  0  0  0  0
    4.4170    2.3520   19.0090 C   0  0  0  0  0  0  0  0  0  0  0  0
    5.0810    1.9200   20.1670 C   0  0  0  0  0  0  0  0  0  0  0  0
    4.8920    2.6900   21.4770 C   0  0  0  0  0  0  0  0  0  0  0  0
    5.8810    3.8640   21.6630 C   0  0  0  0  0  0  0  0  0  0  0  0
    7.1760    3.3980   22.0580 O   0  0  0  0  0  0  0  0  0  0  0  0
  1  2  2  0
  2  3  1  0
  2 10  1  0
  3  4  1  0
  4  5  2  0
  4  9  1  0
  5  6  1  0
  6  7  2  0
  7  8  1  0
  8  9  2  0
 10 11  1  0
 11 12  2  0
 11 16  1  0
 12 13  1  0
 13 14  2  0
 14 15  1  0
 15 16  2  0
 16 17  1  0
 17 18  1  0
 18 19  1  0
M  END
>  <original SMILES>  (66) 
O=C(Nc1ccccc1)Nc1cnccc1CCO

>  <AutoDock Predicted Affinity>  (66) 
-5.083404

>  <ref_pdb>  (66) 
x0434_0

>  <ref_mols>  (66) 
x0434_0

>  <creator>  (66) 
Will Poole

>  <energy minimised>  (66) 
True

$$$$
WPC0229_minimised.pdb
     RDKit          3D

 21 22  0  0  0  0  0  0  0  0999 V2000
    9.2350    0.9420   20.6780 O   0  0  0  0  0  0  0  0  0  0  0  0
    8.8760   -0.0970   21.1880 C   0  0  0  0  0  0  0  0  0  0  0  0
    9.6710   -0.8210   22.0340 N   0  0  0  0  0  0  0  0  0  0  0  0
   11.0110   -0.4760   22.3220 C   0  0  0  0  0  0  0  0  0  0  0  0
   12.0380   -1.3660   21.9820 C   0  0  0  0  0  0  0  0  0  0  0  0
   13.3820   -0.9820   22.1160 C   0  0  0  0  0  0  0  0  0  0  0  0
   13.6990    0.2870   22.6280 C   0  0  0  0  0  0  0  0  0  0  0  0
   12.6720    1.1700   22.9970 C   0  0  0  0  0  0  0  0  0  0  0  0
   11.3300    0.7910   22.8390 C   0  0  0  0  0  0  0  0  0  0  0  0
    7.6380   -0.6230   20.9320 N   0  0  0  0  0  0  0  0  0  0  0  0
    6.7090    0.0110   20.0610 C   0  0  0  0  0  0  0  0  0  0  0  0
    6.7420   -0.2590   18.6780 C   0  0  0  0  0  0  0  0  0  0  0  0
    5.9700    0.3670   17.7670 N   0  0  0  0  0  0  0  0  0  0  0  0
    5.1620    1.3510   18.2180 C   0  0  0  0  0  0  0  0  0  0  0  0
    5.0670    1.6980   19.5770 C   0  0  0  0  0  0  0  0  0  0  0  0
    5.8520    1.0260   20.5310 C   0  0  0  0  0  0  0  0  0  0  0  0
    5.8160    1.4440   21.9990 C   0  0  0  0  0  0  0  0  0  0  0  0
    6.7920    2.6000   22.3250 C   0  0  0  0  0  0  0  0  0  0  0  0
    6.2620    3.9810   21.9230 N   0  0  0  0  0  0  0  0  0  0  0  0
    5.1440    4.2520   22.3480 O   0  0  0  0  0  0  0  0  0  0  0  0
    7.1440    4.8180   21.7750 O   0  0  0  0  0  0  0  0  0  0  0  0
  1  2  2  0
  2  3  1  0
  2 10  1  0
  3  4  1  0
  4  5  2  0
  4  9  1  0
  5  6  1  0
  6  7  2  0
  7  8  1  0
  8  9  2  0
 10 11  1  0
 11 12  2  0
 11 16  1  0
 12 13  1  0
 13 14  2  0
 14 15  1  0
 15 16  2  0
 16 17  1  0
 17 18  1  0
 18 19  1  0
 19 21  1  0
 19 20  2  0
M  CHG  2  19   1  21  -1
M  END
>  <original SMILES>  (67) 
O=C(Nc1ccccc1)Nc1cnccc1CC[N+](=O)[O-]

>  <AutoDock Predicted Affinity>  (67) 
-5.493707

>  <ref_pdb>  (67) 
x0434_0

>  <ref_mols>  (67) 
x0434_0

>  <creator>  (67) 
Will Poole

>  <energy minimised>  (67) 
True

$$$$
WPC0091_minimised.pdb
     RDKit          3D

 24 26  0  0  0  0  0  0  0  0999 V2000
    9.2630    0.4060   20.4500 O   0  0  0  0  0  0  0  0  0  0  0  0
    8.7350   -0.5680   20.9460 C   0  0  0  0  0  0  0  0  0  0  0  0
    9.3260   -1.3880   21.8690 N   0  0  0  0  0  0  0  0  0  0  0  0
   10.4580   -0.9990   22.6100 C   0  0  0  0  0  0  0  0  0  0  0  0
   11.6440   -0.6230   21.9600 C   0  0  0  0  0  0  0  0  0  0  0  0
   12.6820   -0.0210   22.6870 C   0  0  0  0  0  0  0  0  0  0  0  0
   12.5230    0.2050   24.0620 C   0  0  0  0  0  0  0  0  0  0  0  0
   11.3540   -0.2110   24.7230 C   0  0  0  0  0  0  0  0  0  0  0  0
   10.3250   -0.8220   23.9940 C   0  0  0  0  0  0  0  0  0  0  0  0
    7.4380   -0.8880   20.6770 N   0  0  0  0  0  0  0  0  0  0  0  0
    6.5980   -0.0380   19.9170 C   0  0  0  0  0  0  0  0  0  0  0  0
    6.4790   -0.2410   18.5290 C   0  0  0  0  0  0  0  0  0  0  0  0
    5.7720    0.5600   17.7100 N   0  0  0  0  0  0  0  0  0  0  0  0
    5.1830    1.6420   18.2660 C   0  0  0  0  0  0  0  0  0  0  0  0
    5.2610    1.9340   19.6400 C   0  0  0  0  0  0  0  0  0  0  0  0
    5.9940    1.0950   20.5010 C   0  0  0  0  0  0  0  0  0  0  0  0
    6.1040    1.4220   21.9980 C   0  0  0  0  0  0  0  0  0  0  0  0
    6.5740    2.7840   22.3010 N   0  0  0  0  0  0  0  0  0  0  0  0
    7.9920    3.1090   22.0450 C   0  0  0  0  0  0  0  0  0  0  0  0
    8.1580    4.6550   22.0190 C   0  0  0  0  0  0  0  0  0  0  0  0
    9.1280    5.2260   23.0820 C   0  0  0  0  0  0  0  0  0  0  0  0
   10.4860    4.4970   23.1560 C   0  0  0  0  0  0  0  0  0  0  0  0
   10.3740    2.9600   22.9950 C   0  0  0  0  0  0  0  0  0  0  0  0
    8.9260    2.4250   23.0730 C   0  0  0  0  0  0  0  0  0  0  0  0
  1  2  2  0
  2  3  1  0
  2 10  1  0
  3  4  1  0
  4  5  2  0
  4  9  1  0
  5  6  1  0
  6  7  2  0
  7  8  1  0
  8  9  2  0
 10 11  1  0
 11 12  2  0
 11 16  1  0
 12 13  1  0
 13 14  2  0
 14 15  1  0
 15 16  2  0
 16 17  1  0
 17 18  1  0
 18 19  1  0
 19 20  1  0
 19 24  1  0
 20 21  1  0
 21 22  1  0
 22 23  1  0
 23 24  1  0
M  END
>  <original SMILES>  (68) 
O=C(Nc1ccccc1)Nc1cnccc1CNC1CCCCC1

>  <AutoDock Predicted Affinity>  (68) 
-5.486397

>  <ref_pdb>  (68) 
x0434_0

>  <ref_mols>  (68) 
x0434_0

>  <creator>  (68) 
Will Poole

>  <energy minimised>  (68) 
True

$$$$
WPC0165_minimised.pdb
     RDKit          3D

 18 19  0  0  0  0  0  0  0  0999 V2000
    8.7180    0.3360   19.9640 O   0  0  0  0  0  0  0  0  0  0  0  0
    8.0600    0.2940   20.9830 C   0  0  0  0  0  0  0  0  0  0  0  0
    8.6210    0.1720   22.2240 N   0  0  0  0  0  0  0  0  0  0  0  0
   10.0120    0.2360   22.4620 C   0  0  0  0  0  0  0  0  0  0  0  0
   10.8760   -0.7200   21.9030 C   0  0  0  0  0  0  0  0  0  0  0  0
   12.2670   -0.5910   22.0540 C   0  0  0  0  0  0  0  0  0  0  0  0
   12.7940    0.4980   22.7690 C   0  0  0  0  0  0  0  0  0  0  0  0
   11.9300    1.4520   23.3290 C   0  0  0  0  0  0  0  0  0  0  0  0
   10.5400    1.3180   23.1810 C   0  0  0  0  0  0  0  0  0  0  0  0
    6.6950    0.3970   20.9660 N   0  0  0  0  0  0  0  0  0  0  0  0
    5.9390    0.7980   19.8310 C   0  0  0  0  0  0  0  0  0  0  0  0
    6.2370    0.2860   18.5450 C   0  0  0  0  0  0  0  0  0  0  0  0
    5.6790    0.7400   17.4040 N   0  0  0  0  0  0  0  0  0  0  0  0
    4.7910    1.7490   17.5220 C   0  0  0  0  0  0  0  0  0  0  0  0
    4.3670    2.2550   18.7560 C   0  0  0  0  0  0  0  0  0  0  0  0
    4.9600    1.8050   19.9450 C   0  0  0  0  0  0  0  0  0  0  0  0
    4.6100    2.5010   21.2540 C   0  0  0  0  0  0  0  0  0  0  0  0
    5.4080    3.6610   21.4360 O   0  0  0  0  0  0  0  0  0  0  0  0
  1  2  2  0
  2  3  1  0
  2 10  1  0
  3  4  1  0
  4  5  2  0
  4  9  1  0
  5  6  1  0
  6  7  2  0
  7  8  1  0
  8  9  2  0
 10 11  1  0
 11 12  2  0
 11 16  1  0
 12 13  1  0
 13 14  2  0
 14 15  1  0
 15 16  2  0
 16 17  1  0
 17 18  1  0
M  END
>  <original SMILES>  (69) 
O=C(Nc1ccccc1)Nc1cnccc1CO

>  <AutoDock Predicted Affinity>  (69) 
-5.17615

>  <ref_pdb>  (69) 
x0434_0

>  <ref_mols>  (69) 
x0434_0

>  <creator>  (69) 
Will Poole

>  <energy minimised>  (69) 
True

$$$$
WPC0221_minimised.pdb
     RDKit          3D

 23 25  0  0  0  0  0  0  0  0999 V2000
    8.6550    0.2720   19.8180 O   0  0  0  0  0  0  0  0  0  0  0  0
    8.0260   -0.1740   20.7550 C   0  0  0  0  0  0  0  0  0  0  0  0
    8.6050   -0.6940   21.8800 N   0  0  0  0  0  0  0  0  0  0  0  0
    9.9880   -0.6660   22.1550 C   0  0  0  0  0  0  0  0  0  0  0  0
   10.6570   -1.8450   22.5130 C   0  0  0  0  0  0  0  0  0  0  0  0
   12.0420   -1.8220   22.7380 C   0  0  0  0  0  0  0  0  0  0  0  0
   12.7580   -0.6190   22.6160 C   0  0  0  0  0  0  0  0  0  0  0  0
   12.0810    0.5690   22.3080 C   0  0  0  0  0  0  0  0  0  0  0  0
   10.7000    0.5430   22.0640 C   0  0  0  0  0  0  0  0  0  0  0  0
    6.6590   -0.1860   20.7630 N   0  0  0  0  0  0  0  0  0  0  0  0
    5.8850    0.4760   19.7790 C   0  0  0  0  0  0  0  0  0  0  0  0
    6.0920    0.1570   18.4210 C   0  0  0  0  0  0  0  0  0  0  0  0
    5.5150    0.8130   17.3990 N   0  0  0  0  0  0  0  0  0  0  0  0
    4.7180    1.8560   17.7130 C   0  0  0  0  0  0  0  0  0  0  0  0
    4.4330    2.2310   19.0350 C   0  0  0  0  0  0  0  0  0  0  0  0
    5.0280    1.5470   20.1090 C   0  0  0  0  0  0  0  0  0  0  0  0
    4.8140    2.0440   21.5420 C   0  0  0  0  0  0  0  0  0  0  0  0
    6.0800    2.6410   22.1440 C   0  0  0  0  0  0  0  0  0  0  0  0
    6.5030    3.9160   21.7350 C   0  0  0  0  0  0  0  0  0  0  0  0
    7.7380    4.4270   22.1590 C   0  0  0  0  0  0  0  0  0  0  0  0
    8.5510    3.6740   23.0190 C   0  0  0  0  0  0  0  0  0  0  0  0
    8.1100    2.4220   23.4770 C   0  0  0  0  0  0  0  0  0  0  0  0
    6.8700    1.9160   23.0560 C   0  0  0  0  0  0  0  0  0  0  0  0
  1  2  2  0
  2  3  1  0
  2 10  1  0
  3  4  1  0
  4  5  2  0
  4  9  1  0
  5  6  1  0
  6  7  2  0
  7  8  1  0
  8  9  2  0
 10 11  1  0
 11 12  2  0
 11 16  1  0
 12 13  1  0
 13 14  2  0
 14 15  1  0
 15 16  2  0
 16 17  1  0
 17 18  1  0
 18 19  2  0
 18 23  1  0
 19 20  1  0
 20 21  2  0
 21 22  1  0
 22 23  2  0
M  END
>  <original SMILES>  (70) 
O=C(Nc1ccccc1)Nc1cnccc1Cc1ccccc1

>  <AutoDock Predicted Affinity>  (70) 
-6.070905

>  <ref_pdb>  (70) 
x0434_0

>  <ref_mols>  (70) 
x0434_0

>  <creator>  (70) 
Will Poole

>  <energy minimised>  (70) 
True

$$$$
WPC0167_minimised.pdb
     RDKit          3D

 17 18  0  0  0  0  0  0  0  0999 V2000
    8.7800    0.3110   20.0150 O   0  0  0  0  0  0  0  0  0  0  0  0
    8.1330    0.1340   21.0250 C   0  0  0  0  0  0  0  0  0  0  0  0
    8.7030   -0.0620   22.2520 N   0  0  0  0  0  0  0  0  0  0  0  0
   10.0890    0.0700   22.4910 C   0  0  0  0  0  0  0  0  0  0  0  0
   10.9990   -0.8180   21.8940 C   0  0  0  0  0  0  0  0  0  0  0  0
   12.3820   -0.6130   22.0330 C   0  0  0  0  0  0  0  0  0  0  0  0
   12.8560    0.4840   22.7720 C   0  0  0  0  0  0  0  0  0  0  0  0
   11.9450    1.3690   23.3710 C   0  0  0  0  0  0  0  0  0  0  0  0
   10.5630    1.1590   23.2360 C   0  0  0  0  0  0  0  0  0  0  0  0
    6.7650    0.1580   21.0060 N   0  0  0  0  0  0  0  0  0  0  0  0
    6.0090    0.6210   19.8950 C   0  0  0  0  0  0  0  0  0  0  0  0
    6.2870    0.1770   18.5820 C   0  0  0  0  0  0  0  0  0  0  0  0
    5.7110    0.6950   17.4770 N   0  0  0  0  0  0  0  0  0  0  0  0
    4.8420    1.7150   17.6550 C   0  0  0  0  0  0  0  0  0  0  0  0
    4.4650    2.1850   18.9200 C   0  0  0  0  0  0  0  0  0  0  0  0
    5.0600    1.6410   20.0630 C   0  0  0  0  0  0  0  0  0  0  0  0
    4.6900    2.3210   21.6340 Cl  0  0  0  0  0  0  0  0  0  0  0  0
  1  2  2  0
  2  3  1  0
  2 10  1  0
  3  4  1  0
  4  5  2  0
  4  9  1  0
  5  6  1  0
  6  7  2  0
  7  8  1  0
  8  9  2  0
 10 11  1  0
 11 12  2  0
 11 16  1  0
 12 13  1  0
 13 14  2  0
 14 15  1  0
 15 16  2  0
 16 17  1  0
M  END
>  <original SMILES>  (71) 
O=C(Nc1ccccc1)Nc1cnccc1Cl

>  <AutoDock Predicted Affinity>  (71) 
-5.30143

>  <ref_pdb>  (71) 
x0434_0

>  <ref_mols>  (71) 
x0434_0

>  <creator>  (71) 
Will Poole

>  <energy minimised>  (71) 
True

$$$$
WPC0137_minimised.pdb
     RDKit          3D

 17 18  0  0  0  0  0  0  0  0999 V2000
    8.7680    0.2340   19.9720 O   0  0  0  0  0  0  0  0  0  0  0  0
    8.1290    0.0380   20.9840 C   0  0  0  0  0  0  0  0  0  0  0  0
    8.7100   -0.1500   22.2090 N   0  0  0  0  0  0  0  0  0  0  0  0
   10.0960   -0.0060   22.4450 C   0  0  0  0  0  0  0  0  0  0  0  0
   11.0100   -0.8970   21.8610 C   0  0  0  0  0  0  0  0  0  0  0  0
   12.3920   -0.6850   21.9990 C   0  0  0  0  0  0  0  0  0  0  0  0
   12.8610    0.4200   22.7290 C   0  0  0  0  0  0  0  0  0  0  0  0
   11.9460    1.3060   23.3220 C   0  0  0  0  0  0  0  0  0  0  0  0
   10.5650    1.0910   23.1830 C   0  0  0  0  0  0  0  0  0  0  0  0
    6.7590    0.0370   20.9720 N   0  0  0  0  0  0  0  0  0  0  0  0
    5.9860    0.5090   19.8730 C   0  0  0  0  0  0  0  0  0  0  0  0
    6.2700    0.1180   18.5470 C   0  0  0  0  0  0  0  0  0  0  0  0
    5.6760    0.6600   17.4640 N   0  0  0  0  0  0  0  0  0  0  0  0
    4.7870    1.6550   17.6750 C   0  0  0  0  0  0  0  0  0  0  0  0
    4.4030    2.0730   18.9550 C   0  0  0  0  0  0  0  0  0  0  0  0
    5.0140    1.4990   20.0710 C   0  0  0  0  0  0  0  0  0  0  0  0
    4.7060    1.9390   21.3090 F   0  0  0  0  0  0  0  0  0  0  0  0
  1  2  2  0
  2  3  1  0
  2 10  1  0
  3  4  1  0
  4  5  2  0
  4  9  1  0
  5  6  1  0
  6  7  2  0
  7  8  1  0
  8  9  2  0
 10 11  1  0
 11 12  2  0
 11 16  1  0
 12 13  1  0
 13 14  2  0
 14 15  1  0
 15 16  2  0
 16 17  1  0
M  END
>  <original SMILES>  (72) 
O=C(Nc1ccccc1)Nc1cnccc1F

>  <AutoDock Predicted Affinity>  (72) 
-5.45008

>  <ref_pdb>  (72) 
x0434_0

>  <ref_mols>  (72) 
x0434_0

>  <creator>  (72) 
Will Poole

>  <energy minimised>  (72) 
True

$$$$
WPC0126_minimised.pdb
     RDKit          3D

 23 24  0  0  0  0  0  0  0  0999 V2000
    8.9380    0.6350   20.3140 O   0  0  0  0  0  0  0  0  0  0  0  0
    8.3910    0.0110   21.1970 C   0  0  0  0  0  0  0  0  0  0  0  0
    9.0620   -0.4270   22.3070 N   0  0  0  0  0  0  0  0  0  0  0  0
   10.4440   -0.2100   22.4990 C   0  0  0  0  0  0  0  0  0  0  0  0
   11.3740   -1.1260   21.9840 C   0  0  0  0  0  0  0  0  0  0  0  0
   12.7510   -0.8510   22.0560 C   0  0  0  0  0  0  0  0  0  0  0  0
   13.1970    0.3390   22.6540 C   0  0  0  0  0  0  0  0  0  0  0  0
   12.2660    1.2550   23.1710 C   0  0  0  0  0  0  0  0  0  0  0  0
   10.8910    0.9810   23.0930 C   0  0  0  0  0  0  0  0  0  0  0  0
    7.0570   -0.3030   21.1220 N   0  0  0  0  0  0  0  0  0  0  0  0
    6.2330    0.1330   20.0400 C   0  0  0  0  0  0  0  0  0  0  0  0
    6.6340   -0.0710   18.7000 C   0  0  0  0  0  0  0  0  0  0  0  0
    5.9750    0.4260   17.6330 N   0  0  0  0  0  0  0  0  0  0  0  0
    4.9130    1.2190   17.8810 C   0  0  0  0  0  0  0  0  0  0  0  0
    4.4200    1.4570   19.1720 C   0  0  0  0  0  0  0  0  0  0  0  0
    5.0810    0.9010   20.2780 C   0  0  0  0  0  0  0  0  0  0  0  0
    4.6170    1.0940   21.6020 N   0  0  0  0  0  0  0  0  0  0  0  0
    4.3190    2.2430   22.3100 C   0  0  0  0  0  0  0  0  0  0  0  0
    3.9600    2.0660   23.4680 O   0  0  0  0  0  0  0  0  0  0  0  0
    4.4280    3.6410   21.6400 C   0  0  0  0  0  0  0  0  0  0  0  0
    4.6020    4.5910   22.5720 F   0  0  0  0  0  0  0  0  0  0  0  0
    3.2940    3.9460   20.9650 F   0  0  0  0  0  0  0  0  0  0  0  0
    5.4910    3.7450   20.8180 F   0  0  0  0  0  0  0  0  0  0  0  0
  1  2  2  0
  2  3  1  0
  2 10  1  0
  3  4  1  0
  4  5  2  0
  4  9  1  0
  5  6  1  0
  6  7  2  0
  7  8  1  0
  8  9  2  0
 10 11  1  0
 11 12  2  0
 11 16  1  0
 12 13  1  0
 13 14  2  0
 14 15  1  0
 15 16  2  0
 16 17  1  0
 17 18  1  0
 18 19  2  0
 18 20  1  0
 20 22  1  0
 20 23  1  0
 20 21  1  0
M  END
>  <original SMILES>  (73) 
O=C(Nc1ccccc1)Nc1cnccc1NC(=O)C(F)(F)F

>  <AutoDock Predicted Affinity>  (73) 
-6.066172

>  <ref_pdb>  (73) 
x0434_0

>  <ref_mols>  (73) 
x0434_0

>  <creator>  (73) 
Will Poole

>  <energy minimised>  (73) 
True

$$$$
WPC0239_minimised.pdb
     RDKit          3D

 24 26  0  0  0  0  0  0  0  0999 V2000
    9.2260    0.8540   20.6880 O   0  0  0  0  0  0  0  0  0  0  0  0
    8.8590   -0.0220   21.4450 C   0  0  0  0  0  0  0  0  0  0  0  0
    9.6720   -0.5690   22.3990 N   0  0  0  0  0  0  0  0  0  0  0  0
   11.0400   -0.2570   22.5240 C   0  0  0  0  0  0  0  0  0  0  0  0
   12.0020   -1.1870   22.1060 C   0  0  0  0  0  0  0  0  0  0  0  0
   13.3650   -0.8470   22.1200 C   0  0  0  0  0  0  0  0  0  0  0  0
   13.7620    0.4200   22.5780 C   0  0  0  0  0  0  0  0  0  0  0  0
   12.7980    1.3470   23.0060 C   0  0  0  0  0  0  0  0  0  0  0  0
   11.4370    1.0110   22.9730 C   0  0  0  0  0  0  0  0  0  0  0  0
    7.6070   -0.5740   21.3640 N   0  0  0  0  0  0  0  0  0  0  0  0
    6.6560   -0.2170   20.3690 C   0  0  0  0  0  0  0  0  0  0  0  0
    7.0320   -0.1570   19.0060 C   0  0  0  0  0  0  0  0  0  0  0  0
    6.2200    0.2700   18.0160 N   0  0  0  0  0  0  0  0  0  0  0  0
    5.0060    0.7330   18.3750 C   0  0  0  0  0  0  0  0  0  0  0  0
    4.5280    0.6740   19.6960 C   0  0  0  0  0  0  0  0  0  0  0  0
    5.3560    0.1840   20.7200 C   0  0  0  0  0  0  0  0  0  0  0  0
    4.9040    0.1680   22.0700 N   0  0  0  0  0  0  0  0  0  0  0  0
    4.3840    1.2070   22.8190 C   0  0  0  0  0  0  0  0  0  0  0  0
    3.7650    0.9490   23.8380 O   0  0  0  0  0  0  0  0  0  0  0  0
    4.5440    2.5900   22.3030 C   0  0  0  0  0  0  0  0  0  0  0  0
    3.7420    3.6260   22.7080 C   0  0  0  0  0  0  0  0  0  0  0  0
    4.1410    4.7230   21.9080 C   0  0  0  0  0  0  0  0  0  0  0  0
    5.1950    4.2800   21.1620 C   0  0  0  0  0  0  0  0  0  0  0  0
    5.4780    2.9590   21.3630 O   0  0  0  0  0  0  0  0  0  0  0  0
  1  2  2  0
  2  3  1  0
  2 10  1  0
  3  4  1  0
  4  5  2  0
  4  9  1  0
  5  6  1  0
  6  7  2  0
  7  8  1  0
  8  9  2  0
 10 11  1  0
 11 12  2  0
 11 16  1  0
 12 13  1  0
 13 14  2  0
 14 15  1  0
 15 16  2  0
 16 17  1  0
 17 18  1  0
 18 19  2  0
 18 20  1  0
 20 21  2  0
 20 24  1  0
 21 22  1  0
 22 23  2  0
 23 24  1  0
M  END
>  <original SMILES>  (74) 
O=C(Nc1ccccc1)Nc1cnccc1NC(=O)c1ccco1

>  <AutoDock Predicted Affinity>  (74) 
-5.905347

>  <ref_pdb>  (74) 
x0434_0

>  <ref_mols>  (74) 
x0434_0

>  <creator>  (74) 
Will Poole

>  <energy minimised>  (74) 
True

$$$$
WPC0130_minimised.pdb
     RDKit          3D

 24 26  0  0  0  0  0  0  0  0999 V2000
    9.2140    1.0090   20.6090 O   0  0  0  0  0  0  0  0  0  0  0  0
    8.7290    0.1400   21.3020 C   0  0  0  0  0  0  0  0  0  0  0  0
    9.4400   -0.5240   22.2640 N   0  0  0  0  0  0  0  0  0  0  0  0
   10.8250   -0.3350   22.4710 C   0  0  0  0  0  0  0  0  0  0  0  0
   11.7210   -1.3800   22.2040 C   0  0  0  0  0  0  0  0  0  0  0  0
   13.1070   -1.1510   22.2640 C   0  0  0  0  0  0  0  0  0  0  0  0
   13.5940    0.1140   22.6360 C   0  0  0  0  0  0  0  0  0  0  0  0
   12.6980    1.1500   22.9340 C   0  0  0  0  0  0  0  0  0  0  0  0
   11.3170    0.9290   22.8340 C   0  0  0  0  0  0  0  0  0  0  0  0
    7.4240   -0.2390   21.1460 N   0  0  0  0  0  0  0  0  0  0  0  0
    6.5660    0.3810   20.1940 C   0  0  0  0  0  0  0  0  0  0  0  0
    6.7610    0.1490   18.8170 C   0  0  0  0  0  0  0  0  0  0  0  0
    6.0500    0.7550   17.8450 N   0  0  0  0  0  0  0  0  0  0  0  0
    5.1610    1.6980   18.2340 C   0  0  0  0  0  0  0  0  0  0  0  0
    4.9000    2.0010   19.5820 C   0  0  0  0  0  0  0  0  0  0  0  0
    5.6070    1.3310   20.5890 C   0  0  0  0  0  0  0  0  0  0  0  0
    5.3340    1.5580   21.9630 N   0  0  0  0  0  0  0  0  0  0  0  0
    6.2670    1.9520   22.8960 C   0  0  0  0  0  0  0  0  0  0  0  0
    6.3110    1.3290   23.9450 O   0  0  0  0  0  0  0  0  0  0  0  0
    7.1720    3.0860   22.5850 C   0  0  0  0  0  0  0  0  0  0  0  0
    8.3360    3.2800   23.2830 C   0  0  0  0  0  0  0  0  0  0  0  0
    9.0710    4.7860   22.8140 S   0  0  0  0  0  0  0  0  0  0  0  0
    7.8630    5.0120   21.7570 N   0  0  0  0  0  0  0  0  0  0  0  0
    6.9300    4.1050   21.6960 N   0  0  0  0  0  0  0  0  0  0  0  0
  1  2  2  0
  2  3  1  0
  2 10  1  0
  3  4  1  0
  4  5  2  0
  4  9  1  0
  5  6  1  0
  6  7  2  0
  7  8  1  0
  8  9  2  0
 10 11  1  0
 11 12  2  0
 11 16  1  0
 12 13  1  0
 13 14  2  0
 14 15  1  0
 15 16  2  0
 16 17  1  0
 17 18  1  0
 18 19  2  0
 18 20  1  0
 20 21  2  0
 20 24  1  0
 21 22  1  0
 22 23  1  0
 23 24  2  0
M  END
>  <original SMILES>  (75) 
O=C(Nc1ccccc1)Nc1cnccc1NC(=O)c1csnn1

>  <AutoDock Predicted Affinity>  (75) 
-5.85104

>  <ref_pdb>  (75) 
x0434_0

>  <ref_mols>  (75) 
x0434_0

>  <creator>  (75) 
Will Poole

>  <energy minimised>  (75) 
True

$$$$
WPC0200_minimised.pdb
     RDKit          3D

 23 25  0  0  0  0  0  0  0  0999 V2000
    9.1150    1.1200   20.7740 O   0  0  0  0  0  0  0  0  0  0  0  0
    8.8380    0.0310   21.2270 C   0  0  0  0  0  0  0  0  0  0  0  0
    9.7020   -0.7060   21.9920 N   0  0  0  0  0  0  0  0  0  0  0  0
   11.0430   -0.3480   22.2530 C   0  0  0  0  0  0  0  0  0  0  0  0
   12.0670   -1.2420   21.9170 C   0  0  0  0  0  0  0  0  0  0  0  0
   13.4120   -0.8730   22.0750 C   0  0  0  0  0  0  0  0  0  0  0  0
   13.7320    0.3880   22.6050 C   0  0  0  0  0  0  0  0  0  0  0  0
   12.7080    1.2770   22.9640 C   0  0  0  0  0  0  0  0  0  0  0  0
   11.3650    0.9120   22.7840 C   0  0  0  0  0  0  0  0  0  0  0  0
    7.6360   -0.5810   20.9660 N   0  0  0  0  0  0  0  0  0  0  0  0
    6.6820   -0.0660   20.0330 C   0  0  0  0  0  0  0  0  0  0  0  0
    6.8940   -0.2490   18.6540 C   0  0  0  0  0  0  0  0  0  0  0  0
    6.1010    0.2650   17.6970 N   0  0  0  0  0  0  0  0  0  0  0  0
    5.0770    1.0450   18.0920 C   0  0  0  0  0  0  0  0  0  0  0  0
    4.7770    1.2760   19.4380 C   0  0  0  0  0  0  0  0  0  0  0  0
    5.6050    0.7440   20.4350 C   0  0  0  0  0  0  0  0  0  0  0  0
    5.3910    0.9700   21.7900 N   0  0  0  0  0  0  0  0  0  0  0  0
    4.6320    1.9070   22.4810 C   0  0  0  0  0  0  0  0  0  0  0  0
    4.2100    1.6190   23.7910 C   0  0  0  0  0  0  0  0  0  0  0  0
    3.3740    2.5090   24.4900 C   0  0  0  0  0  0  0  0  0  0  0  0
    3.0020    3.7250   23.8950 C   0  0  0  0  0  0  0  0  0  0  0  0
    3.4970    4.0560   22.6230 C   0  0  0  0  0  0  0  0  0  0  0  0
    4.3120    3.1550   21.9280 C   0  0  0  0  0  0  0  0  0  0  0  0
  1  2  2  0
  2  3  1  0
  2 10  1  0
  3  4  1  0
  4  5  2  0
  4  9  1  0
  5  6  1  0
  6  7  2  0
  7  8  1  0
  8  9  2  0
 10 11  1  0
 11 12  2  0
 11 16  1  0
 12 13  1  0
 13 14  2  0
 14 15  1  0
 15 16  2  0
 16 17  1  0
 17 18  1  0
 18 19  2  0
 18 23  1  0
 19 20  1  0
 20 21  2  0
 21 22  1  0
 22 23  2  0
M  END
>  <original SMILES>  (76) 
O=C(Nc1ccccc1)Nc1cnccc1Nc1ccccc1

>  <AutoDock Predicted Affinity>  (76) 
-5.80812

>  <ref_pdb>  (76) 
x0434_0

>  <ref_mols>  (76) 
x0434_0

>  <creator>  (76) 
Will Poole

>  <energy minimised>  (76) 
True

$$$$
WPC0106_minimised.pdb
     RDKit          3D

 23 25  0  0  0  0  0  0  0  0999 V2000
    9.0400    0.7210   20.4850 O   0  0  0  0  0  0  0  0  0  0  0  0
    8.5760   -0.1340   21.2090 C   0  0  0  0  0  0  0  0  0  0  0  0
    9.2930   -0.7000   22.2270 N   0  0  0  0  0  0  0  0  0  0  0  0
   10.6390   -0.3600   22.4870 C   0  0  0  0  0  0  0  0  0  0  0  0
   11.6700   -1.1410   21.9460 C   0  0  0  0  0  0  0  0  0  0  0  0
   13.0100   -0.7360   22.0770 C   0  0  0  0  0  0  0  0  0  0  0  0
   13.3150    0.4520   22.7620 C   0  0  0  0  0  0  0  0  0  0  0  0
   12.2820    1.2370   23.2990 C   0  0  0  0  0  0  0  0  0  0  0  0
   10.9450    0.8310   23.1610 C   0  0  0  0  0  0  0  0  0  0  0  0
    7.3020   -0.6010   21.0270 N   0  0  0  0  0  0  0  0  0  0  0  0
    6.4510   -0.0680   20.0160 C   0  0  0  0  0  0  0  0  0  0  0  0
    6.7890   -0.2130   18.6550 C   0  0  0  0  0  0  0  0  0  0  0  0
    6.1070    0.3620   17.6430 N   0  0  0  0  0  0  0  0  0  0  0  0
    5.0950    1.1880   17.9750 C   0  0  0  0  0  0  0  0  0  0  0  0
    4.6910    1.4010   19.3000 C   0  0  0  0  0  0  0  0  0  0  0  0
    5.3690    0.7620   20.3490 C   0  0  0  0  0  0  0  0  0  0  0  0
    4.9940    0.9280   21.6770 N   0  0  0  0  0  0  0  0  0  0  0  0
    4.3260    1.9300   22.3240 C   0  0  0  0  0  0  0  0  0  0  0  0
    4.2550    3.2390   21.8480 C   0  0  0  0  0  0  0  0  0  0  0  0
    3.5130    4.1810   22.5610 C   0  0  0  0  0  0  0  0  0  0  0  0
    2.8920    3.7580   23.7450 C   0  0  0  0  0  0  0  0  0  0  0  0
    3.0570    2.4290   24.1640 C   0  0  0  0  0  0  0  0  0  0  0  0
    3.7630    1.5180   23.4660 N   0  0  0  0  0  0  0  0  0  0  0  0
  1  2  2  0
  2  3  1  0
  2 10  1  0
  3  4  1  0
  4  5  2  0
  4  9  1  0
  5  6  1  0
  6  7  2  0
  7  8  1  0
  8  9  2  0
 10 11  1  0
 11 12  2  0
 11 16  1  0
 12 13  1  0
 13 14  2  0
 14 15  1  0
 15 16  2  0
 16 17  1  0
 17 18  1  0
 18 19  2  0
 18 23  1  0
 19 20  1  0
 20 21  2  0
 21 22  1  0
 22 23  2  0
M  END
>  <original SMILES>  (77) 
O=C(Nc1ccccc1)Nc1cnccc1Nc1ccccn1

>  <AutoDock Predicted Affinity>  (77) 
-5.607825

>  <ref_pdb>  (77) 
x0434_0

>  <ref_mols>  (77) 
x0434_0

>  <creator>  (77) 
Will Poole

>  <energy minimised>  (77) 
True

$$$$
WPC0008_minimised.pdb
     RDKit          3D

 17 18  0  0  0  0  0  0  0  0999 V2000
    8.8160    0.3850   20.0750 O   0  0  0  0  0  0  0  0  0  0  0  0
    8.1720    0.0370   21.0410 C   0  0  0  0  0  0  0  0  0  0  0  0
    8.7460   -0.2520   22.2490 N   0  0  0  0  0  0  0  0  0  0  0  0
   10.1220   -0.0620   22.5090 C   0  0  0  0  0  0  0  0  0  0  0  0
   11.0750   -0.8970   21.9060 C   0  0  0  0  0  0  0  0  0  0  0  0
   12.4470   -0.6280   22.0520 C   0  0  0  0  0  0  0  0  0  0  0  0
   12.8650    0.4800   22.8080 C   0  0  0  0  0  0  0  0  0  0  0  0
   11.9110    1.3130   23.4150 C   0  0  0  0  0  0  0  0  0  0  0  0
   10.5410    1.0400   23.2700 C   0  0  0  0  0  0  0  0  0  0  0  0
    6.8020   -0.0520   20.9910 N   0  0  0  0  0  0  0  0  0  0  0  0
    6.0330    0.4470   19.8930 C   0  0  0  0  0  0  0  0  0  0  0  0
    6.3690    0.1070   18.5650 C   0  0  0  0  0  0  0  0  0  0  0  0
    5.8070    0.6750   17.4800 N   0  0  0  0  0  0  0  0  0  0  0  0
    4.9090    1.6610   17.6910 C   0  0  0  0  0  0  0  0  0  0  0  0
    4.4820    2.0380   18.9670 C   0  0  0  0  0  0  0  0  0  0  0  0
    5.0430    1.4220   20.0830 C   0  0  0  0  0  0  0  0  0  0  0  0
    4.6470    1.7960   21.3250 O   0  0  0  0  0  0  0  0  0  0  0  0
  1  2  2  0
  2  3  1  0
  2 10  1  0
  3  4  1  0
  4  5  2  0
  4  9  1  0
  5  6  1  0
  6  7  2  0
  7  8  1  0
  8  9  2  0
 10 11  1  0
 11 12  2  0
 11 16  1  0
 12 13  1  0
 13 14  2  0
 14 15  1  0
 15 16  2  0
 16 17  1  0
M  END
>  <original SMILES>  (78) 
O=C(Nc1ccccc1)Nc1cnccc1O

>  <AutoDock Predicted Affinity>  (78) 
-5.416225

>  <ref_pdb>  (78) 
x0434_0

>  <ref_mols>  (78) 
x0434_0

>  <creator>  (78) 
Will Poole

>  <energy minimised>  (78) 
True

$$$$
WPC0042_minimised.pdb
     RDKit          3D

 21 22  0  0  0  0  0  0  0  0999 V2000
    8.6920    0.2380   19.9640 O   0  0  0  0  0  0  0  0  0  0  0  0
    8.0160   -0.0060   20.9410 C   0  0  0  0  0  0  0  0  0  0  0  0
    8.5490   -0.2130   22.1830 N   0  0  0  0  0  0  0  0  0  0  0  0
    9.9180   -0.0230   22.4760 C   0  0  0  0  0  0  0  0  0  0  0  0
   10.8890   -0.8550   21.8940 C   0  0  0  0  0  0  0  0  0  0  0  0
   12.2550   -0.5870   22.0820 C   0  0  0  0  0  0  0  0  0  0  0  0
   12.6510    0.5170   22.8560 C   0  0  0  0  0  0  0  0  0  0  0  0
   11.6800    1.3440   23.4440 C   0  0  0  0  0  0  0  0  0  0  0  0
   10.3150    1.0710   23.2580 C   0  0  0  0  0  0  0  0  0  0  0  0
    6.6490   -0.0370   20.8720 N   0  0  0  0  0  0  0  0  0  0  0  0
    5.9230    0.5030   19.7770 C   0  0  0  0  0  0  0  0  0  0  0  0
    6.2720    0.1820   18.4470 C   0  0  0  0  0  0  0  0  0  0  0  0
    5.7220    0.7680   17.3650 N   0  0  0  0  0  0  0  0  0  0  0  0
    4.8140    1.7440   17.5830 C   0  0  0  0  0  0  0  0  0  0  0  0
    4.3740    2.1030   18.8640 C   0  0  0  0  0  0  0  0  0  0  0  0
    4.9260    1.4730   19.9820 C   0  0  0  0  0  0  0  0  0  0  0  0
    4.4420    1.7920   21.2290 O   0  0  0  0  0  0  0  0  0  0  0  0
    5.1170    2.7080   22.1170 C   0  0  0  0  0  0  0  0  0  0  0  0
    5.5920    3.8080   21.5100 F   0  0  0  0  0  0  0  0  0  0  0  0
    6.1480    2.1150   22.7580 F   0  0  0  0  0  0  0  0  0  0  0  0
    4.2540    3.1010   23.0780 F   0  0  0  0  0  0  0  0  0  0  0  0
  1  2  2  0
  2  3  1  0
  2 10  1  0
  3  4  1  0
  4  5  2  0
  4  9  1  0
  5  6  1  0
  6  7  2  0
  7  8  1  0
  8  9  2  0
 10 11  1  0
 11 12  2  0
 11 16  1  0
 12 13  1  0
 13 14  2  0
 14 15  1  0
 15 16  2  0
 16 17  1  0
 17 18  1  0
 18 20  1  0
 18 21  1  0
 18 19  1  0
M  END
>  <original SMILES>  (79) 
O=C(Nc1ccccc1)Nc1cnccc1OC(F)(F)F

>  <AutoDock Predicted Affinity>  (79) 
-5.68986

>  <ref_pdb>  (79) 
x0434_0

>  <ref_mols>  (79) 
x0434_0

>  <creator>  (79) 
Will Poole

>  <energy minimised>  (79) 
True

$$$$
WPC0053_minimised.pdb
     RDKit          3D

 20 21  0  0  0  0  0  0  0  0999 V2000
    8.8200    0.0070   19.8940 O   0  0  0  0  0  0  0  0  0  0  0  0
    8.2370    0.1960   20.9380 C   0  0  0  0  0  0  0  0  0  0  0  0
    8.8840    0.3350   22.1370 N   0  0  0  0  0  0  0  0  0  0  0  0
   10.2880    0.3460   22.3040 C   0  0  0  0  0  0  0  0  0  0  0  0
   11.0740   -0.7240   21.8430 C   0  0  0  0  0  0  0  0  0  0  0  0
   12.4720   -0.6810   21.9720 C   0  0  0  0  0  0  0  0  0  0  0  0
   13.0860    0.4320   22.5690 C   0  0  0  0  0  0  0  0  0  0  0  0
   12.3010    1.5000   23.0310 C   0  0  0  0  0  0  0  0  0  0  0  0
   10.9030    1.4570   22.9020 C   0  0  0  0  0  0  0  0  0  0  0  0
    6.8740    0.3380   21.0030 N   0  0  0  0  0  0  0  0  0  0  0  0
    6.0100    0.6110   19.9020 C   0  0  0  0  0  0  0  0  0  0  0  0
    6.2910    0.2320   18.5670 C   0  0  0  0  0  0  0  0  0  0  0  0
    5.5790    0.6590   17.5030 N   0  0  0  0  0  0  0  0  0  0  0  0
    4.5620    1.5170   17.7410 C   0  0  0  0  0  0  0  0  0  0  0  0
    4.1530    1.8750   19.0320 C   0  0  0  0  0  0  0  0  0  0  0  0
    4.8790    1.4070   20.1310 C   0  0  0  0  0  0  0  0  0  0  0  0
    4.4960    1.7360   21.4070 O   0  0  0  0  0  0  0  0  0  0  0  0
    4.7240    3.0670   21.9070 C   0  0  0  0  0  0  0  0  0  0  0  0
    6.0230    3.1840   22.2680 F   0  0  0  0  0  0  0  0  0  0  0  0
    4.0100    3.2060   23.0460 F   0  0  0  0  0  0  0  0  0  0  0  0
  1  2  2  0
  2  3  1  0
  2 10  1  0
  3  4  1  0
  4  5  2  0
  4  9  1  0
  5  6  1  0
  6  7  2  0
  7  8  1  0
  8  9  2  0
 10 11  1  0
 11 12  2  0
 11 16  1  0
 12 13  1  0
 13 14  2  0
 14 15  1  0
 15 16  2  0
 16 17  1  0
 17 18  1  0
 18 20  1  0
 18 19  1  0
M  END
>  <original SMILES>  (80) 
O=C(Nc1ccccc1)Nc1cnccc1OC(F)F

>  <AutoDock Predicted Affinity>  (80) 
-5.336125

>  <ref_pdb>  (80) 
x0434_0

>  <ref_mols>  (80) 
x0434_0

>  <creator>  (80) 
Will Poole

>  <energy minimised>  (80) 
True

$$$$
WPC0009_minimised.pdb
     RDKit          3D

 24 26  0  0  0  0  0  0  0  0999 V2000
    8.9390    1.0700   20.6060 O   0  0  0  0  0  0  0  0  0  0  0  0
    8.6970   -0.0510   20.9950 C   0  0  0  0  0  0  0  0  0  0  0  0
    9.5550   -0.7700   21.7850 N   0  0  0  0  0  0  0  0  0  0  0  0
   10.8710   -0.3720   22.1220 C   0  0  0  0  0  0  0  0  0  0  0  0
   11.9310   -1.2530   21.8700 C   0  0  0  0  0  0  0  0  0  0  0  0
   13.2580   -0.8570   22.1040 C   0  0  0  0  0  0  0  0  0  0  0  0
   13.5240    0.4170   22.6310 C   0  0  0  0  0  0  0  0  0  0  0  0
   12.4630    1.2930   22.9110 C   0  0  0  0  0  0  0  0  0  0  0  0
   11.1390    0.9020   22.6490 C   0  0  0  0  0  0  0  0  0  0  0  0
    7.5570   -0.7150   20.6150 N   0  0  0  0  0  0  0  0  0  0  0  0
    6.6110   -0.1910   19.6830 C   0  0  0  0  0  0  0  0  0  0  0  0
    6.8550   -0.2450   18.2990 C   0  0  0  0  0  0  0  0  0  0  0  0
    6.0660    0.3430   17.3740 N   0  0  0  0  0  0  0  0  0  0  0  0
    5.0160    1.0700   17.8040 C   0  0  0  0  0  0  0  0  0  0  0  0
    4.6870    1.1750   19.1570 C   0  0  0  0  0  0  0  0  0  0  0  0
    5.4930    0.5400   20.1050 C   0  0  0  0  0  0  0  0  0  0  0  0
    5.2370    0.7380   21.4280 O   0  0  0  0  0  0  0  0  0  0  0  0
    5.6240    2.0160   21.9680 C   0  0  0  0  0  0  0  0  0  0  0  0
    4.6460    2.3100   23.0820 C   0  0  0  0  0  0  0  0  0  0  0  0
    3.7330    3.3720   22.9540 C   0  0  0  0  0  0  0  0  0  0  0  0
    2.7350    3.5530   23.9240 C   0  0  0  0  0  0  0  0  0  0  0  0
    2.6390    2.6710   25.0090 C   0  0  0  0  0  0  0  0  0  0  0  0
    3.5710    1.6310   25.1540 C   0  0  0  0  0  0  0  0  0  0  0  0
    4.5790    1.4550   24.1960 C   0  0  0  0  0  0  0  0  0  0  0  0
  1  2  2  0
  2  3  1  0
  2 10  1  0
  3  4  1  0
  4  5  2  0
  4  9  1  0
  5  6  1  0
  6  7  2  0
  7  8  1  0
  8  9  2  0
 10 11  1  0
 11 12  2  0
 11 16  1  0
 12 13  1  0
 13 14  2  0
 14 15  1  0
 15 16  2  0
 16 17  1  0
 17 18  1  0
 18 19  1  0
 19 20  2  0
 19 24  1  0
 20 21  1  0
 21 22  2  0
 22 23  1  0
 23 24  2  0
M  END
>  <original SMILES>  (81) 
O=C(Nc1ccccc1)Nc1cnccc1OCc1ccccc1

>  <AutoDock Predicted Affinity>  (81) 
-5.19802

>  <ref_pdb>  (81) 
x0434_0

>  <ref_mols>  (81) 
x0434_0

>  <creator>  (81) 
Will Poole

>  <energy minimised>  (81) 
True

$$$$
WPC0181_minimised.pdb
     RDKit          3D

 24 26  0  0  0  0  0  0  0  0999 V2000
    9.0470    0.7760   20.5550 O   0  0  0  0  0  0  0  0  0  0  0  0
    8.7610   -0.2790   21.0800 C   0  0  0  0  0  0  0  0  0  0  0  0
    9.5880   -0.9120   21.9680 N   0  0  0  0  0  0  0  0  0  0  0  0
   10.8840   -0.4550   22.2920 C   0  0  0  0  0  0  0  0  0  0  0  0
   11.9990   -1.1500   21.8070 C   0  0  0  0  0  0  0  0  0  0  0  0
   13.2950   -0.6650   22.0410 C   0  0  0  0  0  0  0  0  0  0  0  0
   13.4760    0.5180   22.7760 C   0  0  0  0  0  0  0  0  0  0  0  0
   12.3590    1.2150   23.2660 C   0  0  0  0  0  0  0  0  0  0  0  0
   11.0640    0.7290   23.0230 C   0  0  0  0  0  0  0  0  0  0  0  0
    7.5830   -0.9260   20.8010 N   0  0  0  0  0  0  0  0  0  0  0  0
    6.6030   -0.4050   19.9030 C   0  0  0  0  0  0  0  0  0  0  0  0
    6.9540   -0.1570   18.5590 C   0  0  0  0  0  0  0  0  0  0  0  0
    6.1320    0.4190   17.6590 N   0  0  0  0  0  0  0  0  0  0  0  0
    4.9450    0.8770   18.1040 C   0  0  0  0  0  0  0  0  0  0  0  0
    4.4970    0.6600   19.4150 C   0  0  0  0  0  0  0  0  0  0  0  0
    5.3170   -0.0120   20.3280 C   0  0  0  0  0  0  0  0  0  0  0  0
    4.8350   -0.2470   21.5990 O   0  0  0  0  0  0  0  0  0  0  0  0
    5.5350    0.0270   22.7480 C   0  0  0  0  0  0  0  0  0  0  0  0
    6.3890    1.1410   22.8260 C   0  0  0  0  0  0  0  0  0  0  0  0
    7.1720    1.3390   23.9750 C   0  0  0  0  0  0  0  0  0  0  0  0
    7.0650    0.4460   25.0550 C   0  0  0  0  0  0  0  0  0  0  0  0
    8.0460    0.6610   26.4830 Cl  0  0  0  0  0  0  0  0  0  0  0  0
    6.1780   -0.6390   24.9950 C   0  0  0  0  0  0  0  0  0  0  0  0
    5.4130   -0.8510   23.8370 C   0  0  0  0  0  0  0  0  0  0  0  0
  1  2  2  0
  2  3  1  0
  2 10  1  0
  3  4  1  0
  4  5  2  0
  4  9  1  0
  5  6  1  0
  6  7  2  0
  7  8  1  0
  8  9  2  0
 10 11  1  0
 11 12  2  0
 11 16  1  0
 12 13  1  0
 13 14  2  0
 14 15  1  0
 15 16  2  0
 16 17  1  0
 17 18  1  0
 18 19  2  0
 18 24  1  0
 19 20  1  0
 20 21  2  0
 21 22  1  0
 21 23  1  0
 23 24  2  0
M  END
>  <original SMILES>  (82) 
O=C(Nc1ccccc1)Nc1cnccc1Oc1ccc(Cl)cc1

>  <AutoDock Predicted Affinity>  (82) 
-6.014065

>  <ref_pdb>  (82) 
x0434_0

>  <ref_mols>  (82) 
x0434_0

>  <creator>  (82) 
Will Poole

>  <energy minimised>  (82) 
True

$$$$
WPC0002_minimised.pdb
     RDKit          3D

 24 26  0  0  0  0  0  0  0  0999 V2000
    9.1850    0.7850   20.5990 O   0  0  0  0  0  0  0  0  0  0  0  0
    8.9400   -0.2660   21.1520 C   0  0  0  0  0  0  0  0  0  0  0  0
    9.7980   -0.8670   22.0330 N   0  0  0  0  0  0  0  0  0  0  0  0
   11.1090   -0.4190   22.2950 C   0  0  0  0  0  0  0  0  0  0  0  0
   12.1830   -1.2770   22.0280 C   0  0  0  0  0  0  0  0  0  0  0  0
   13.5030   -0.8270   22.1790 C   0  0  0  0  0  0  0  0  0  0  0  0
   13.7500    0.4770   22.6380 C   0  0  0  0  0  0  0  0  0  0  0  0
   12.6740    1.3320   22.9290 C   0  0  0  0  0  0  0  0  0  0  0  0
   11.3550    0.8870   22.7480 C   0  0  0  0  0  0  0  0  0  0  0  0
    7.7790   -0.9520   20.9090 N   0  0  0  0  0  0  0  0  0  0  0  0
    6.7510   -0.4550   20.0540 C   0  0  0  0  0  0  0  0  0  0  0  0
    6.9970   -0.3060   18.6740 C   0  0  0  0  0  0  0  0  0  0  0  0
    6.1230    0.2480   17.8090 N   0  0  0  0  0  0  0  0  0  0  0  0
    4.9910    0.7750   18.3220 C   0  0  0  0  0  0  0  0  0  0  0  0
    4.6530    0.6680   19.6790 C   0  0  0  0  0  0  0  0  0  0  0  0
    5.5310    0.0310   20.5640 C   0  0  0  0  0  0  0  0  0  0  0  0
    5.2080   -0.0430   21.9040 O   0  0  0  0  0  0  0  0  0  0  0  0
    6.0650    0.4190   22.8760 C   0  0  0  0  0  0  0  0  0  0  0  0
    6.7760    1.6180   22.6850 C   0  0  0  0  0  0  0  0  0  0  0  0
    7.7760    1.9920   23.5960 C   0  0  0  0  0  0  0  0  0  0  0  0
    8.0490    1.1770   24.7090 C   0  0  0  0  0  0  0  0  0  0  0  0
    7.3080    0.0050   24.9210 C   0  0  0  0  0  0  0  0  0  0  0  0
    7.6890   -1.0980   26.4310 Br  0  0  0  0  0  0  0  0  0  0  0  0
    6.3130   -0.3750   24.0060 C   0  0  0  0  0  0  0  0  0  0  0  0
  1  2  2  0
  2  3  1  0
  2 10  1  0
  3  4  1  0
  4  5  2  0
  4  9  1  0
  5  6  1  0
  6  7  2  0
  7  8  1  0
  8  9  2  0
 10 11  1  0
 11 12  2  0
 11 16  1  0
 12 13  1  0
 13 14  2  0
 14 15  1  0
 15 16  2  0
 16 17  1  0
 17 18  1  0
 18 24  1  0
 18 19  2  0
 19 20  1  0
 20 21  2  0
 21 22  1  0
 22 23  1  0
 22 24  2  0
M  END
>  <original SMILES>  (83) 
O=C(Nc1ccccc1)Nc1cnccc1Oc1cccc(Br)c1

>  <AutoDock Predicted Affinity>  (83) 
-6.04506

>  <ref_pdb>  (83) 
x0434_0

>  <ref_mols>  (83) 
x0434_0

>  <creator>  (83) 
Will Poole

>  <energy minimised>  (83) 
True

$$$$
WPC0232_minimised.pdb
     RDKit          3D

 23 25  0  0  0  0  0  0  0  0999 V2000
    9.1110    0.7280   20.5150 O   0  0  0  0  0  0  0  0  0  0  0  0
    8.8180   -0.2870   21.1110 C   0  0  0  0  0  0  0  0  0  0  0  0
    9.6540   -0.8840   22.0160 N   0  0  0  0  0  0  0  0  0  0  0  0
   10.9720   -0.4530   22.2770 C   0  0  0  0  0  0  0  0  0  0  0  0
   12.0440   -1.3000   21.9680 C   0  0  0  0  0  0  0  0  0  0  0  0
   13.3660   -0.8580   22.1270 C   0  0  0  0  0  0  0  0  0  0  0  0
   13.6170    0.4280   22.6340 C   0  0  0  0  0  0  0  0  0  0  0  0
   12.5450    1.2730   22.9610 C   0  0  0  0  0  0  0  0  0  0  0  0
   11.2240    0.8360   22.7730 C   0  0  0  0  0  0  0  0  0  0  0  0
    7.6230   -0.9250   20.8960 N   0  0  0  0  0  0  0  0  0  0  0  0
    6.6240   -0.4160   20.0140 C   0  0  0  0  0  0  0  0  0  0  0  0
    6.9150   -0.2610   18.6430 C   0  0  0  0  0  0  0  0  0  0  0  0
    6.0780    0.3110   17.7530 N   0  0  0  0  0  0  0  0  0  0  0  0
    4.9380    0.8490   18.2320 C   0  0  0  0  0  0  0  0  0  0  0  0
    4.5510    0.7310   19.5760 C   0  0  0  0  0  0  0  0  0  0  0  0
    5.3910    0.0780   20.4840 C   0  0  0  0  0  0  0  0  0  0  0  0
    5.0130   -0.0110   21.8090 O   0  0  0  0  0  0  0  0  0  0  0  0
    5.8280    0.4130   22.8340 C   0  0  0  0  0  0  0  0  0  0  0  0
    6.6400    1.5510   22.6800 C   0  0  0  0  0  0  0  0  0  0  0  0
    7.5800    1.8790   23.6690 C   0  0  0  0  0  0  0  0  0  0  0  0
    7.6840    1.0880   24.8270 C   0  0  0  0  0  0  0  0  0  0  0  0
    6.8350   -0.0160   25.0060 C   0  0  0  0  0  0  0  0  0  0  0  0
    5.9080   -0.3560   24.0060 C   0  0  0  0  0  0  0  0  0  0  0  0
  1  2  2  0
  2  3  1  0
  2 10  1  0
  3  4  1  0
  4  5  2  0
  4  9  1  0
  5  6  1  0
  6  7  2  0
  7  8  1  0
  8  9  2  0
 10 11  1  0
 11 12  2  0
 11 16  1  0
 12 13  1  0
 13 14  2  0
 14 15  1  0
 15 16  2  0
 16 17  1  0
 17 18  1  0
 18 19  2  0
 18 23  1  0
 19 20  1  0
 20 21  2  0
 21 22  1  0
 22 23  2  0
M  END
>  <original SMILES>  (84) 
O=C(Nc1ccccc1)Nc1cnccc1Oc1ccccc1

>  <AutoDock Predicted Affinity>  (84) 
-5.914855

>  <ref_pdb>  (84) 
x0434_0

>  <ref_mols>  (84) 
x0434_0

>  <creator>  (84) 
Will Poole

>  <energy minimised>  (84) 
True

$$$$
WPC0236_minimised.pdb
     RDKit          3D

 17 18  0  0  0  0  0  0  0  0999 V2000
    8.7250    0.2440   19.9210 O   0  0  0  0  0  0  0  0  0  0  0  0
    8.0800    0.2310   20.9490 C   0  0  0  0  0  0  0  0  0  0  0  0
    8.6520    0.1340   22.1870 N   0  0  0  0  0  0  0  0  0  0  0  0
   10.0460    0.1840   22.4150 C   0  0  0  0  0  0  0  0  0  0  0  0
   10.8950   -0.7900   21.8630 C   0  0  0  0  0  0  0  0  0  0  0  0
   12.2880   -0.6780   22.0040 C   0  0  0  0  0  0  0  0  0  0  0  0
   12.8360    0.4080   22.7060 C   0  0  0  0  0  0  0  0  0  0  0  0
   11.9880    1.3770   23.2650 C   0  0  0  0  0  0  0  0  0  0  0  0
   10.5950    1.2640   23.1230 C   0  0  0  0  0  0  0  0  0  0  0  0
    6.7180    0.3550   20.9390 N   0  0  0  0  0  0  0  0  0  0  0  0
    5.9590    0.7300   19.7980 C   0  0  0  0  0  0  0  0  0  0  0  0
    6.2120    0.1690   18.5250 C   0  0  0  0  0  0  0  0  0  0  0  0
    5.6320    0.6020   17.3860 N   0  0  0  0  0  0  0  0  0  0  0  0
    4.7570    1.6240   17.4960 C   0  0  0  0  0  0  0  0  0  0  0  0
    4.3790    2.1750   18.7220 C   0  0  0  0  0  0  0  0  0  0  0  0
    5.0120    1.7640   19.8960 C   0  0  0  0  0  0  0  0  0  0  0  0
    4.7160    2.6860   21.3890 S   0  0  0  0  0  0  0  0  0  0  0  0
  1  2  2  0
  2  3  1  0
  2 10  1  0
  3  4  1  0
  4  5  2  0
  4  9  1  0
  5  6  1  0
  6  7  2  0
  7  8  1  0
  8  9  2  0
 10 11  1  0
 11 12  2  0
 11 16  1  0
 12 13  1  0
 13 14  2  0
 14 15  1  0
 15 16  2  0
 16 17  1  0
M  END
>  <original SMILES>  (85) 
O=C(Nc1ccccc1)Nc1cnccc1S

>  <AutoDock Predicted Affinity>  (85) 
-4.76246

>  <ref_pdb>  (85) 
x0434_0

>  <ref_mols>  (85) 
x0434_0

>  <creator>  (85) 
Will Poole

>  <energy minimised>  (85) 
True

$$$$
WPC0061_minimised.pdb
     RDKit          3D

 21 22  0  0  0  0  0  0  0  0999 V2000
    8.6880    0.3630   20.0040 O   0  0  0  0  0  0  0  0  0  0  0  0
    8.0320    0.2390   21.0170 C   0  0  0  0  0  0  0  0  0  0  0  0
    8.5970    0.0560   22.2500 N   0  0  0  0  0  0  0  0  0  0  0  0
    9.9880    0.1390   22.4880 C   0  0  0  0  0  0  0  0  0  0  0  0
   10.8660   -0.7820   21.8920 C   0  0  0  0  0  0  0  0  0  0  0  0
   12.2550   -0.6280   22.0330 C   0  0  0  0  0  0  0  0  0  0  0  0
   12.7690    0.4510   22.7710 C   0  0  0  0  0  0  0  0  0  0  0  0
   11.8910    1.3680   23.3720 C   0  0  0  0  0  0  0  0  0  0  0  0
   10.5020    1.2090   23.2350 C   0  0  0  0  0  0  0  0  0  0  0  0
    6.6660    0.3080   20.9970 N   0  0  0  0  0  0  0  0  0  0  0  0
    5.9170    0.7590   19.8800 C   0  0  0  0  0  0  0  0  0  0  0  0
    6.2100    0.3010   18.5740 C   0  0  0  0  0  0  0  0  0  0  0  0
    5.6510    0.8110   17.4570 N   0  0  0  0  0  0  0  0  0  0  0  0
    4.7820    1.8330   17.6190 C   0  0  0  0  0  0  0  0  0  0  0  0
    4.3840    2.3100   18.8770 C   0  0  0  0  0  0  0  0  0  0  0  0
    4.9480    1.7660   20.0410 C   0  0  0  0  0  0  0  0  0  0  0  0
    4.5580    2.4470   21.6550 S   0  0  0  0  0  0  0  0  0  0  0  0
    2.7310    2.7330   21.6960 C   0  0  0  0  0  0  0  0  0  0  0  0
    2.0510    1.6380   21.2810 F   0  0  0  0  0  0  0  0  0  0  0  0
    2.3080    2.9720   22.9560 F   0  0  0  0  0  0  0  0  0  0  0  0
    2.3060    3.7620   20.9380 F   0  0  0  0  0  0  0  0  0  0  0  0
  1  2  2  0
  2  3  1  0
  2 10  1  0
  3  4  1  0
  4  5  2  0
  4  9  1  0
  5  6  1  0
  6  7  2  0
  7  8  1  0
  8  9  2  0
 10 11  1  0
 11 12  2  0
 11 16  1  0
 12 13  1  0
 13 14  2  0
 14 15  1  0
 15 16  2  0
 16 17  1  0
 17 18  1  0
 18 20  1  0
 18 21  1  0
 18 19  1  0
M  END
>  <original SMILES>  (86) 
O=C(Nc1ccccc1)Nc1cnccc1SC(F)(F)F

>  <AutoDock Predicted Affinity>  (86) 
-5.250268

>  <ref_pdb>  (86) 
x0434_0

>  <ref_mols>  (86) 
x0434_0

>  <creator>  (86) 
Will Poole

>  <energy minimised>  (86) 
True

$$$$
WPC0188_minimised.pdb
     RDKit          3D

 24 26  0  0  0  0  0  0  0  0999 V2000
    9.1510    0.4610   20.3500 O   0  0  0  0  0  0  0  0  0  0  0  0
    8.5540   -0.0500   21.2720 C   0  0  0  0  0  0  0  0  0  0  0  0
    9.1800   -0.5440   22.3890 N   0  0  0  0  0  0  0  0  0  0  0  0
   10.5780   -0.4450   22.5870 C   0  0  0  0  0  0  0  0  0  0  0  0
   11.4530   -1.0940   21.7040 C   0  0  0  0  0  0  0  0  0  0  0  0
   12.8350   -0.8470   21.7540 C   0  0  0  0  0  0  0  0  0  0  0  0
   13.3420    0.0660   22.6890 C   0  0  0  0  0  0  0  0  0  0  0  0
   12.4720    0.6850   23.5990 C   0  0  0  0  0  0  0  0  0  0  0  0
   11.0950    0.4110   23.5680 C   0  0  0  0  0  0  0  0  0  0  0  0
    7.1920   -0.1650   21.2370 N   0  0  0  0  0  0  0  0  0  0  0  0
    6.4140    0.3950   20.1910 C   0  0  0  0  0  0  0  0  0  0  0  0
    6.6360    0.0090   18.8500 C   0  0  0  0  0  0  0  0  0  0  0  0
    6.0130    0.5670   17.7900 N   0  0  0  0  0  0  0  0  0  0  0  0
    5.1680    1.5910   18.0470 C   0  0  0  0  0  0  0  0  0  0  0  0
    4.8790    2.0410   19.3470 C   0  0  0  0  0  0  0  0  0  0  0  0
    5.5060    1.4360   20.4470 C   0  0  0  0  0  0  0  0  0  0  0  0
    5.2060    2.0470   22.1000 S   0  0  0  0  0  0  0  0  0  0  0  0
    6.6960    2.9870   22.3800 C   0  0  0  0  0  0  0  0  0  0  0  0
    7.7010    2.4970   23.2320 C   0  0  0  0  0  0  0  0  0  0  0  0
    8.8570    3.2630   23.4710 C   0  0  0  0  0  0  0  0  0  0  0  0
    8.9990    4.5260   22.8850 C   0  0  0  0  0  0  0  0  0  0  0  0
   10.3820    5.5230   23.2850 Cl  0  0  0  0  0  0  0  0  0  0  0  0
    8.0170    4.9980   22.0040 C   0  0  0  0  0  0  0  0  0  0  0  0
    6.8590    4.2380   21.7660 C   0  0  0  0  0  0  0  0  0  0  0  0
  1  2  2  0
  2  3  1  0
  2 10  1  0
  3  4  1  0
  4  5  2  0
  4  9  1  0
  5  6  1  0
  6  7  2  0
  7  8  1  0
  8  9  2  0
 10 11  1  0
 11 12  2  0
 11 16  1  0
 12 13  1  0
 13 14  2  0
 14 15  1  0
 15 16  2  0
 16 17  1  0
 17 18  1  0
 18 19  2  0
 18 24  1  0
 19 20  1  0
 20 21  2  0
 21 22  1  0
 21 23  1  0
 23 24  2  0
M  END
>  <original SMILES>  (87) 
O=C(Nc1ccccc1)Nc1cnccc1Sc1ccc(Cl)cc1

>  <AutoDock Predicted Affinity>  (87) 
-6.14085

>  <ref_pdb>  (87) 
x0434_0

>  <ref_mols>  (87) 
x0434_0

>  <creator>  (87) 
Will Poole

>  <energy minimised>  (87) 
True

$$$$
WPC0157_minimised.pdb
     RDKit          3D

 23 25  0  0  0  0  0  0  0  0999 V2000
    9.1420    0.4610   20.3490 O   0  0  0  0  0  0  0  0  0  0  0  0
    8.5360   -0.0540   21.2640 C   0  0  0  0  0  0  0  0  0  0  0  0
    9.1550   -0.5480   22.3860 N   0  0  0  0  0  0  0  0  0  0  0  0
   10.5480   -0.4400   22.6070 C   0  0  0  0  0  0  0  0  0  0  0  0
   11.4450   -1.0210   21.6980 C   0  0  0  0  0  0  0  0  0  0  0  0
   12.8220   -0.7620   21.7820 C   0  0  0  0  0  0  0  0  0  0  0  0
   13.3050    0.0980   22.7780 C   0  0  0  0  0  0  0  0  0  0  0  0
   12.4150    0.6440   23.7160 C   0  0  0  0  0  0  0  0  0  0  0  0
   11.0420    0.3560   23.6500 C   0  0  0  0  0  0  0  0  0  0  0  0
    7.1750   -0.1770   21.2180 N   0  0  0  0  0  0  0  0  0  0  0  0
    6.3990    0.3850   20.1700 C   0  0  0  0  0  0  0  0  0  0  0  0
    6.6580    0.0320   18.8260 C   0  0  0  0  0  0  0  0  0  0  0  0
    6.0480    0.6010   17.7660 N   0  0  0  0  0  0  0  0  0  0  0  0
    5.1870    1.6100   18.0250 C   0  0  0  0  0  0  0  0  0  0  0  0
    4.8620    2.0280   19.3270 C   0  0  0  0  0  0  0  0  0  0  0  0
    5.4620    1.4000   20.4300 C   0  0  0  0  0  0  0  0  0  0  0  0
    5.0970    1.9610   22.0890 S   0  0  0  0  0  0  0  0  0  0  0  0
    6.5640    2.9230   22.3990 C   0  0  0  0  0  0  0  0  0  0  0  0
    7.5820    2.4290   23.2310 C   0  0  0  0  0  0  0  0  0  0  0  0
    8.7720    3.1600   23.3930 C   0  0  0  0  0  0  0  0  0  0  0  0
    8.9350    4.3910   22.7460 C   0  0  0  0  0  0  0  0  0  0  0  0
    7.9120    4.8910   21.9290 C   0  0  0  0  0  0  0  0  0  0  0  0
    6.7220    4.1650   21.7690 C   0  0  0  0  0  0  0  0  0  0  0  0
  1  2  2  0
  2  3  1  0
  2 10  1  0
  3  4  1  0
  4  5  2  0
  4  9  1  0
  5  6  1  0
  6  7  2  0
  7  8  1  0
  8  9  2  0
 10 11  1  0
 11 12  2  0
 11 16  1  0
 12 13  1  0
 13 14  2  0
 14 15  1  0
 15 16  2  0
 16 17  1  0
 17 18  1  0
 18 19  2  0
 18 23  1  0
 19 20  1  0
 20 21  2  0
 21 22  1  0
 22 23  2  0
M  END
>  <original SMILES>  (88) 
O=C(Nc1ccccc1)Nc1cnccc1Sc1ccccc1

>  <AutoDock Predicted Affinity>  (88) 
-5.72042

>  <ref_pdb>  (88) 
x0434_0

>  <ref_mols>  (88) 
x0434_0

>  <creator>  (88) 
Will Poole

>  <energy minimised>  (88) 
True

$$$$
WPC0123_minimised.pdb
     RDKit          3D

 24 26  0  0  0  0  0  0  0  0999 V2000
    8.8130    0.3370   19.9990 O   0  0  0  0  0  0  0  0  0  0  0  0
    8.2670   -0.2750   20.8930 C   0  0  0  0  0  0  0  0  0  0  0  0
    8.9430   -0.8700   21.9230 N   0  0  0  0  0  0  0  0  0  0  0  0
   10.3320   -0.7540   22.1510 C   0  0  0  0  0  0  0  0  0  0  0  0
   11.1010   -1.9000   22.3990 C   0  0  0  0  0  0  0  0  0  0  0  0
   12.4890   -1.7860   22.5800 C   0  0  0  0  0  0  0  0  0  0  0  0
   13.1050   -0.5240   22.5500 C   0  0  0  0  0  0  0  0  0  0  0  0
   12.3290    0.6260   22.3580 C   0  0  0  0  0  0  0  0  0  0  0  0
   10.9490    0.5090   22.1350 C   0  0  0  0  0  0  0  0  0  0  0  0
    6.9080   -0.4140   20.9320 N   0  0  0  0  0  0  0  0  0  0  0  0
    6.0630    0.2540   20.0120 C   0  0  0  0  0  0  0  0  0  0  0  0
    6.2310    0.0420   18.6260 C   0  0  0  0  0  0  0  0  0  0  0  0
    5.5860    0.7440   17.6740 N   0  0  0  0  0  0  0  0  0  0  0  0
    4.7730    1.7400   18.0920 C   0  0  0  0  0  0  0  0  0  0  0  0
    4.5240    2.0090   19.4500 C   0  0  0  0  0  0  0  0  0  0  0  0
    5.1660    1.2470   20.4420 C   0  0  0  0  0  0  0  0  0  0  0  0
    4.9160    1.6160   22.1790 S   0  0  0  0  0  0  0  0  0  0  0  0
    6.4090    2.5430   22.5070 C   0  0  0  0  0  0  0  0  0  0  0  0
    6.5900    3.7750   21.8580 C   0  0  0  0  0  0  0  0  0  0  0  0
    7.7840    4.4950   22.0160 C   0  0  0  0  0  0  0  0  0  0  0  0
    8.8090    3.9820   22.8250 C   0  0  0  0  0  0  0  0  0  0  0  0
    8.6230    2.7680   23.5020 C   0  0  0  0  0  0  0  0  0  0  0  0
    7.4150    2.0640   23.3710 C   0  0  0  0  0  0  0  0  0  0  0  0
    7.1730    0.4920   24.4260 Br  0  0  0  0  0  0  0  0  0  0  0  0
  1  2  2  0
  2  3  1  0
  2 10  1  0
  3  4  1  0
  4  5  2  0
  4  9  1  0
  5  6  1  0
  6  7  2  0
  7  8  1  0
  8  9  2  0
 10 11  1  0
 11 12  2  0
 11 16  1  0
 12 13  1  0
 13 14  2  0
 14 15  1  0
 15 16  2  0
 16 17  1  0
 17 18  1  0
 18 19  2  0
 18 23  1  0
 19 20  1  0
 20 21  2  0
 21 22  1  0
 22 23  2  0
 23 24  1  0
M  END
>  <original SMILES>  (89) 
O=C(Nc1ccccc1)Nc1cnccc1Sc1ccccc1Br

>  <AutoDock Predicted Affinity>  (89) 
-5.79247

>  <ref_pdb>  (89) 
x0434_0

>  <ref_mols>  (89) 
x0434_0

>  <creator>  (89) 
Will Poole

>  <energy minimised>  (89) 
True

$$$$
WPC0139_minimised.pdb
     RDKit          3D

 24 26  0  0  0  0  0  0  0  0999 V2000
    9.0320   -0.3700   20.5070 O   0  0  0  0  0  0  0  0  0  0  0  0
    8.6830    0.5310   21.2350 C   0  0  0  0  0  0  0  0  0  0  0  0
    9.4720    1.0970   22.1990 N   0  0  0  0  0  0  0  0  0  0  0  0
   10.8570    0.8860   22.4020 C   0  0  0  0  0  0  0  0  0  0  0  0
   11.4760   -0.3540   22.1530 C   0  0  0  0  0  0  0  0  0  0  0  0
   12.8660   -0.4930   22.2880 C   0  0  0  0  0  0  0  0  0  0  0  0
   13.6400    0.6000   22.7050 C   0  0  0  0  0  0  0  0  0  0  0  0
   13.0240    1.8290   22.9770 C   0  0  0  0  0  0  0  0  0  0  0  0
   11.6370    1.9740   22.8230 C   0  0  0  0  0  0  0  0  0  0  0  0
    7.4680    1.1360   21.1080 N   0  0  0  0  0  0  0  0  0  0  0  0
    6.5310    0.9970   20.0520 C   0  0  0  0  0  0  0  0  0  0  0  0
    6.8790    0.5200   18.7610 C   0  0  0  0  0  0  0  0  0  0  0  0
    6.0420    0.5380   17.7020 N   0  0  0  0  0  0  0  0  0  0  0  0
    4.8240    1.0810   17.8990 C   0  0  0  0  0  0  0  0  0  0  0  0
    4.3640    1.5150   19.1490 C   0  0  0  0  0  0  0  0  0  0  0  0
    5.2250    1.4740   20.2640 C   0  0  0  0  0  0  0  0  0  0  0  0
    4.6970    2.0630   21.9370 S   0  0  1  0  0  0  0  0  0  0  0  0
    5.8240    2.8960   22.5170 O   0  0  0  0  0  0  0  0  0  0  0  0
    3.3250    3.1570   21.4230 C   0  0  0  0  0  0  0  0  0  0  0  0
    2.0020    2.7890   21.7210 C   0  0  0  0  0  0  0  0  0  0  0  0
    0.9280    3.4950   21.1540 C   0  0  0  0  0  0  0  0  0  0  0  0
    1.1810    4.5640   20.2800 C   0  0  0  0  0  0  0  0  0  0  0  0
    2.5030    4.9580   20.0200 C   0  0  0  0  0  0  0  0  0  0  0  0
    3.5770    4.2680   20.6020 C   0  0  0  0  0  0  0  0  0  0  0  0
  1  2  2  0
  2  3  1  0
  2 10  1  0
  3  4  1  0
  4  5  2  0
  4  9  1  0
  5  6  1  0
  6  7  2  0
  7  8  1  0
  8  9  2  0
 10 11  1  0
 11 12  2  0
 11 16  1  0
 12 13  1  0
 13 14  2  0
 14 15  1  0
 15 16  2  0
 17 16  1  0
 17 18  1  6
 17 19  1  0
 19 20  2  0
 19 24  1  0
 20 21  1  0
 21 22  2  0
 22 23  1  0
 23 24  2  0
M  END
>  <original SMILES>  (90) 
O=C(Nc1ccccc1)Nc1cnccc1[SH](O)c1ccccc1

>  <AutoDock Predicted Affinity>  (90) 
-5.80432

>  <ref_pdb>  (90) 
x0434_0

>  <ref_mols>  (90) 
x0434_0

>  <creator>  (90) 
Will Poole

>  <energy minimised>  (90) 
True

$$$$
WPC0164_minimised.pdb
     RDKit          3D

 20 21  0  0  0  0  0  0  0  0999 V2000
    2.2500    1.9560   21.3730 O   0  0  0  0  0  0  0  0  0  0  0  0
    3.1130    2.7750   21.0930 C   0  0  0  0  0  0  0  0  0  0  0  0
    2.7880    3.9980   20.6350 O   0  0  0  0  0  0  0  0  0  0  0  0
    4.6000    2.4250   21.0970 C   0  0  0  0  0  0  0  0  0  0  0  0
    5.0240    1.6730   19.8380 C   0  0  0  0  0  0  0  0  0  0  0  0
    4.5090    2.0760   18.5970 C   0  0  0  0  0  0  0  0  0  0  0  0
    5.0010    1.5240   17.4160 C   0  0  0  0  0  0  0  0  0  0  0  0
    5.8950    0.5200   17.3900 N   0  0  0  0  0  0  0  0  0  0  0  0
    6.3800    0.1050   18.5780 C   0  0  0  0  0  0  0  0  0  0  0  0
    6.0050    0.6610   19.8240 C   0  0  0  0  0  0  0  0  0  0  0  0
    6.7090    0.2960   21.0070 N   0  0  0  0  0  0  0  0  0  0  0  0
    8.0770    0.2740   21.0890 C   0  0  0  0  0  0  0  0  0  0  0  0
    8.7680    0.4820   20.1150 O   0  0  0  0  0  0  0  0  0  0  0  0
    8.6110    0.0210   22.3220 N   0  0  0  0  0  0  0  0  0  0  0  0
   10.0000    0.0880   22.5710 C   0  0  0  0  0  0  0  0  0  0  0  0
   10.8650   -0.8500   21.9840 C   0  0  0  0  0  0  0  0  0  0  0  0
   12.2560   -0.6950   22.0930 C   0  0  0  0  0  0  0  0  0  0  0  0
   12.7850    0.4020   22.7940 C   0  0  0  0  0  0  0  0  0  0  0  0
   11.9210    1.3360   23.3860 C   0  0  0  0  0  0  0  0  0  0  0  0
   10.5290    1.1770   23.2800 C   0  0  0  0  0  0  0  0  0  0  0  0
  1  2  2  0
  2  3  1  0
  2  4  1  0
  4  5  1  0
  5  6  2  0
  5 10  1  0
  6  7  1  0
  7  8  2  0
  8  9  1  0
  9 10  2  0
 10 11  1  0
 11 12  1  0
 12 13  2  0
 12 14  1  0
 14 15  1  0
 15 16  2  0
 15 20  1  0
 16 17  1  0
 17 18  2  0
 18 19  1  0
 19 20  2  0
M  END
>  <original SMILES>  (91) 
O=C(O)Cc1ccncc1NC(=O)Nc1ccccc1

>  <AutoDock Predicted Affinity>  (91) 
-5.401813

>  <ref_pdb>  (91) 
x0434_0

>  <ref_mols>  (91) 
x0434_0

>  <creator>  (91) 
Will Poole

>  <energy minimised>  (91) 
True

$$$$
WPC0429_minimised.pdb
     RDKit          3D

 20 21  0  0  1  0  0  0  0  0999 V2000
   14.5940    1.3330   22.6600 C   0  0  0  0  0  0  0  0  0  0  0  0
   14.1260    0.4030   23.2520 C   0  0  0  0  0  0  0  0  0  0  0  0
   13.4950   -0.6990   23.9850 C   0  0  2  0  0  0  0  0  0  0  0  0
   14.1450   -1.9120   23.6300 O   0  0  0  0  0  0  0  0  0  0  0  0
   12.0240   -0.7560   23.6080 C   0  0  0  0  0  0  0  0  0  0  0  0
   11.6600   -1.2060   22.3280 C   0  0  0  0  0  0  0  0  0  0  0  0
   10.3270   -1.1480   21.9140 C   0  0  0  0  0  0  0  0  0  0  0  0
    9.3460   -0.6010   22.7520 C   0  0  0  0  0  0  0  0  0  0  0  0
    8.0370   -0.3980   22.2660 N   0  0  0  0  0  0  0  0  0  0  0  0
    7.7160    0.0630   21.0150 C   0  0  0  0  0  0  0  0  0  0  0  0
    8.5200    0.3290   20.1410 O   0  0  0  0  0  0  0  0  0  0  0  0
    6.3690    0.1920   20.8340 N   0  0  0  0  0  0  0  0  0  0  0  0
    5.7430    0.7110   19.6770 C   0  0  0  0  0  0  0  0  0  0  0  0
    4.7400    1.6760   19.8230 C   0  0  0  0  0  0  0  0  0  0  0  0
    4.2200    2.2510   18.6580 C   0  0  0  0  0  0  0  0  0  0  0  0
    4.7170    1.8580   17.4080 C   0  0  0  0  0  0  0  0  0  0  0  0
    5.6430    0.8840   17.2520 N   0  0  0  0  0  0  0  0  0  0  0  0
    6.1570    0.3430   18.3770 C   0  0  0  0  0  0  0  0  0  0  0  0
    9.6890   -0.1990   24.0510 C   0  0  0  0  0  0  0  0  0  0  0  0
   11.0240   -0.2840   24.4820 C   0  0  0  0  0  0  0  0  0  0  0  0
  1  2  3  0
  2  3  1  0
  3  4  1  6
  3  5  1  0
  5 20  2  0
  5  6  1  0
  6  7  2  0
  7  8  1  0
  8  9  1  0
  8 19  2  0
  9 10  1  0
 10 11  2  0
 10 12  1  0
 12 13  1  0
 13 14  2  0
 13 18  1  0
 14 15  1  0
 15 16  2  0
 16 17  1  0
 17 18  2  0
 19 20  1  0
M  END
>  <original SMILES>  (92) 
C#CC(O)c1ccc(NC(=O)Nc2cccnc2)cc1

>  <AutoDock Predicted Affinity>  (92) 
-6.20126

>  <ref_pdb>  (92) 
x0434_0

>  <ref_mols>  (92) 
x0434_0

>  <creator>  (92) 
Will Poole

>  <energy minimised>  (92) 
True

$$$$
WPC0398_minimised.pdb
     RDKit          3D

 21 22  0  0  0  0  0  0  0  0999 V2000
   13.8770    5.5210   22.1760 C   0  0  0  0  0  0  0  0  0  0  0  0
   13.3900    4.4570   22.4290 C   0  0  0  0  0  0  0  0  0  0  0  0
   12.8150    3.1560   22.7870 C   0  0  0  0  0  0  0  0  0  0  0  0
   13.8270    1.9970   22.6080 C   0  0  0  0  0  0  0  0  0  0  0  0
   13.4710    0.7190   23.3980 C   0  0  0  0  0  0  0  0  0  0  0  0
   12.0560    0.2470   23.1330 C   0  0  0  0  0  0  0  0  0  0  0  0
   11.7950   -0.6060   22.0500 C   0  0  0  0  0  0  0  0  0  0  0  0
   10.4710   -0.9420   21.7380 C   0  0  0  0  0  0  0  0  0  0  0  0
    9.4100   -0.4060   22.4810 C   0  0  0  0  0  0  0  0  0  0  0  0
    8.0860   -0.5300   22.0160 N   0  0  0  0  0  0  0  0  0  0  0  0
    7.6970   -0.1860   20.7490 C   0  0  0  0  0  0  0  0  0  0  0  0
    8.4630    0.0560   19.8350 O   0  0  0  0  0  0  0  0  0  0  0  0
    6.3400   -0.0850   20.6160 N   0  0  0  0  0  0  0  0  0  0  0  0
    5.6930    0.5150   19.5110 C   0  0  0  0  0  0  0  0  0  0  0  0
    4.7340    1.5080   19.7440 C   0  0  0  0  0  0  0  0  0  0  0  0
    4.2220    2.1900   18.6330 C   0  0  0  0  0  0  0  0  0  0  0  0
    4.6920    1.8760   17.3500 C   0  0  0  0  0  0  0  0  0  0  0  0
    5.5790    0.8840   17.1120 N   0  0  0  0  0  0  0  0  0  0  0  0
    6.0770    0.2330   18.1820 C   0  0  0  0  0  0  0  0  0  0  0  0
    9.6720    0.3800   23.6100 C   0  0  0  0  0  0  0  0  0  0  0  0
   10.9960    0.6970   23.9430 C   0  0  0  0  0  0  0  0  0  0  0  0
  1  2  3  0
  2  3  1  0
  3  4  1  0
  4  5  1  0
  5  6  1  0
  6 21  2  0
  6  7  1  0
  7  8  2  0
  8  9  1  0
  9 10  1  0
  9 20  2  0
 10 11  1  0
 11 12  2  0
 11 13  1  0
 13 14  1  0
 14 15  2  0
 14 19  1  0
 15 16  1  0
 16 17  2  0
 17 18  1  0
 18 19  2  0
 20 21  1  0
M  END
>  <original SMILES>  (93) 
C#CCCCc1ccc(NC(=O)Nc2cccnc2)cc1

>  <AutoDock Predicted Affinity>  (93) 
-6.150185

>  <ref_pdb>  (93) 
x0434_0

>  <ref_mols>  (93) 
x0434_0

>  <creator>  (93) 
Will Poole

>  <energy minimised>  (93) 
True

$$$$
WPC0970_minimised.pdb
     RDKit          3D

 21 22  0  0  0  0  0  0  0  0999 V2000
   13.8450    5.4040   22.1920 C   0  0  0  0  0  0  0  0  0  0  0  0
   13.3030    4.3980   22.5550 C   0  0  0  0  0  0  0  0  0  0  0  0
   12.6840    3.1550   23.0200 C   0  0  0  0  0  0  0  0  0  0  0  0
   13.6790    2.0730   23.0370 N   0  0  0  0  0  0  0  0  0  0  0  0
   13.3210    0.8200   23.7170 C   0  0  0  0  0  0  0  0  0  0  0  0
   11.9420    0.3160   23.3530 C   0  0  0  0  0  0  0  0  0  0  0  0
   11.7700   -0.4900   22.2180 C   0  0  0  0  0  0  0  0  0  0  0  0
   10.4800   -0.8610   21.8200 C   0  0  0  0  0  0  0  0  0  0  0  0
    9.3620   -0.4140   22.5400 C   0  0  0  0  0  0  0  0  0  0  0  0
    8.0630   -0.5830   22.0220 N   0  0  0  0  0  0  0  0  0  0  0  0
    7.6950   -0.2280   20.7520 C   0  0  0  0  0  0  0  0  0  0  0  0
    8.4720    0.0450   19.8570 O   0  0  0  0  0  0  0  0  0  0  0  0
    6.3390   -0.1520   20.6010 N   0  0  0  0  0  0  0  0  0  0  0  0
    5.6930    0.4600   19.5020 C   0  0  0  0  0  0  0  0  0  0  0  0
    4.7280    1.4440   19.7450 C   0  0  0  0  0  0  0  0  0  0  0  0
    4.2150    2.1380   18.6410 C   0  0  0  0  0  0  0  0  0  0  0  0
    4.6900    1.8420   17.3560 C   0  0  0  0  0  0  0  0  0  0  0  0
    5.5860    0.8590   17.1090 N   0  0  0  0  0  0  0  0  0  0  0  0
    6.0840    0.1980   18.1720 C   0  0  0  0  0  0  0  0  0  0  0  0
    9.5360    0.3250   23.7180 C   0  0  0  0  0  0  0  0  0  0  0  0
   10.8270    0.6850   24.1290 C   0  0  0  0  0  0  0  0  0  0  0  0
  1  2  3  0
  2  3  1  0
  3  4  1  0
  4  5  1  0
  5  6  1  0
  6 21  2  0
  6  7  1  0
  7  8  2  0
  8  9  1  0
  9 10  1  0
  9 20  2  0
 10 11  1  0
 11 12  2  0
 11 13  1  0
 13 14  1  0
 14 15  2  0
 14 19  1  0
 15 16  1  0
 16 17  2  0
 17 18  1  0
 18 19  2  0
 20 21  1  0
M  END
>  <original SMILES>  (94) 
C#CCNCc1ccc(NC(=O)Nc2cccnc2)cc1

>  <AutoDock Predicted Affinity>  (94) 
-6.01855

>  <ref_pdb>  (94) 
x0434_0

>  <ref_mols>  (94) 
x0434_0

>  <creator>  (94) 
Will Poole

>  <energy minimised>  (94) 
True

$$$$
WPC0898_minimised.pdb
     RDKit          3D

 23 24  0  0  0  0  0  0  0  0999 V2000
   14.0790    6.1410   21.9390 C   0  0  0  0  0  0  0  0  0  0  0  0
   13.2410    5.2920   22.0280 C   0  0  0  0  0  0  0  0  0  0  0  0
   12.2700    4.1940   22.1340 C   0  0  0  0  0  0  0  0  0  0  0  0
   12.7590    3.0490   22.9220 N   0  0  0  0  0  0  0  0  0  0  0  0
   14.0170    2.6610   22.5840 N   0  0  0  0  0  0  0  0  0  0  0  0
   14.4910    1.4800   22.7630 C   0  0  0  0  0  0  0  0  0  0  0  0
   13.8120    0.3240   23.4680 C   0  0  0  0  0  0  0  0  0  0  0  0
   12.3440    0.0950   23.1420 C   0  0  0  0  0  0  0  0  0  0  0  0
   11.9910   -0.5860   21.9690 C   0  0  0  0  0  0  0  0  0  0  0  0
   10.6380   -0.7800   21.6630 C   0  0  0  0  0  0  0  0  0  0  0  0
    9.6330   -0.2710   22.4990 C   0  0  0  0  0  0  0  0  0  0  0  0
    8.2810   -0.3260   22.1000 N   0  0  0  0  0  0  0  0  0  0  0  0
    7.8270    0.0310   20.8580 C   0  0  0  0  0  0  0  0  0  0  0  0
    8.5520    0.3390   19.9320 O   0  0  0  0  0  0  0  0  0  0  0  0
    6.4640    0.0390   20.7520 N   0  0  0  0  0  0  0  0  0  0  0  0
    5.7600    0.5560   19.6380 C   0  0  0  0  0  0  0  0  0  0  0  0
    4.7760    1.5280   19.8480 C   0  0  0  0  0  0  0  0  0  0  0  0
    4.2150    2.1360   18.7190 C   0  0  0  0  0  0  0  0  0  0  0  0
    4.6600    1.7700   17.4400 C   0  0  0  0  0  0  0  0  0  0  0  0
    5.5690    0.7920   17.2260 N   0  0  0  0  0  0  0  0  0  0  0  0
    6.1160    0.2140   18.3150 C   0  0  0  0  0  0  0  0  0  0  0  0
    9.9820    0.3620   23.6970 C   0  0  0  0  0  0  0  0  0  0  0  0
   11.3350    0.5320   24.0230 C   0  0  0  0  0  0  0  0  0  0  0  0
  1  2  3  0
  2  3  1  0
  3  4  1  0
  4  5  1  0
  5  6  2  0
  6  7  1  0
  7  8  1  0
  8 23  2  0
  8  9  1  0
  9 10  2  0
 10 11  1  0
 11 12  1  0
 11 22  2  0
 12 13  1  0
 13 14  2  0
 13 15  1  0
 15 16  1  0
 16 17  2  0
 16 21  1  0
 17 18  1  0
 18 19  2  0
 19 20  1  0
 20 21  2  0
 22 23  1  0
M  END
>  <original SMILES>  (95) 
C#CCNN=CCc1ccc(NC(=O)Nc2cccnc2)cc1

>  <AutoDock Predicted Affinity>  (95) 
-5.919075

>  <ref_pdb>  (95) 
x0434_0

>  <ref_mols>  (95) 
x0434_0

>  <creator>  (95) 
Will Poole

>  <energy minimised>  (95) 
True

$$$$
WPC0875_minimised.pdb
     RDKit          3D

 20 21  0  0  0  0  0  0  0  0999 V2000
   12.6560    2.8200   23.1820 C   0  0  0  0  0  0  0  0  0  0  0  0
   13.3920    1.7040   23.1190 C   0  0  0  0  0  0  0  0  0  0  0  0
   14.7570    1.6640   22.4760 C   0  0  0  0  0  0  0  0  0  0  0  0
   12.9570    0.3660   23.6770 C   0  0  0  0  0  0  0  0  0  0  0  0
   11.5200    0.0200   23.3490 C   0  0  0  0  0  0  0  0  0  0  0  0
   11.2470   -0.7220   22.1900 C   0  0  0  0  0  0  0  0  0  0  0  0
    9.9230   -0.9260   21.7920 C   0  0  0  0  0  0  0  0  0  0  0  0
    8.8710   -0.3590   22.5260 C   0  0  0  0  0  0  0  0  0  0  0  0
    7.5730   -0.3330   21.9810 N   0  0  0  0  0  0  0  0  0  0  0  0
    7.2910    0.0630   20.7000 C   0  0  0  0  0  0  0  0  0  0  0  0
    8.1220    0.2580   19.8310 O   0  0  0  0  0  0  0  0  0  0  0  0
    5.9540    0.2480   20.4970 N   0  0  0  0  0  0  0  0  0  0  0  0
    5.3810    0.8390   19.3490 C   0  0  0  0  0  0  0  0  0  0  0  0
    4.4030    1.8270   19.5080 C   0  0  0  0  0  0  0  0  0  0  0  0
    3.9490    2.4800   18.3560 C   0  0  0  0  0  0  0  0  0  0  0  0
    4.4930    2.1430   17.1090 C   0  0  0  0  0  0  0  0  0  0  0  0
    5.4010    1.1550   16.9410 N   0  0  0  0  0  0  0  0  0  0  0  0
    5.8420    0.5320   18.0510 C   0  0  0  0  0  0  0  0  0  0  0  0
    9.1350    0.3060   23.7320 C   0  0  0  0  0  0  0  0  0  0  0  0
   10.4620    0.4840   24.1530 C   0  0  0  0  0  0  0  0  0  0  0  0
  1  2  2  0
  2  3  1  0
  2  4  1  0
  4  5  1  0
  5 20  2  0
  5  6  1  0
  6  7  2  0
  7  8  1  0
  8  9  1  0
  8 19  2  0
  9 10  1  0
 10 11  2  0
 10 12  1  0
 12 13  1  0
 13 14  2  0
 13 18  1  0
 14 15  1  0
 15 16  2  0
 16 17  1  0
 17 18  2  0
 19 20  1  0
M  END
>  <original SMILES>  (96) 
C=C(C)Cc1ccc(NC(=O)Nc2cccnc2)cc1

>  <AutoDock Predicted Affinity>  (96) 
-5.30094

>  <ref_pdb>  (96) 
x0434_0

>  <ref_mols>  (96) 
x0434_0

>  <creator>  (96) 
Will Poole

>  <energy minimised>  (96) 
True

$$$$
WPC0854_minimised.pdb
     RDKit          3D

 21 22  0  0  0  0  0  0  0  0999 V2000
   14.5220    2.8700   22.6260 C   0  0  0  0  0  0  0  0  0  0  0  0
   13.4740    2.4280   23.3230 C   0  0  0  0  0  0  0  0  0  0  0  0
   12.3730    3.3800   23.7590 C   0  0  0  0  0  0  0  0  0  0  0  0
   11.3800    3.6580   22.6210 C   0  0  0  0  0  0  0  0  0  0  0  0
   13.3440    0.9730   23.7550 C   0  0  0  0  0  0  0  0  0  0  0  0
   12.0080    0.3680   23.3810 C   0  0  0  0  0  0  0  0  0  0  0  0
   11.8510   -0.2340   22.1260 C   0  0  0  0  0  0  0  0  0  0  0  0
   10.5820   -0.6560   21.7180 C   0  0  0  0  0  0  0  0  0  0  0  0
    9.4610   -0.4430   22.5350 C   0  0  0  0  0  0  0  0  0  0  0  0
    8.1550   -0.6160   22.0270 N   0  0  0  0  0  0  0  0  0  0  0  0
    7.7380   -0.1950   20.7910 C   0  0  0  0  0  0  0  0  0  0  0  0
    8.4750    0.1700   19.8950 O   0  0  0  0  0  0  0  0  0  0  0  0
    6.3780   -0.1750   20.6600 N   0  0  0  0  0  0  0  0  0  0  0  0
    5.7030    0.4240   19.5710 C   0  0  0  0  0  0  0  0  0  0  0  0
    4.7500    1.4200   19.8200 C   0  0  0  0  0  0  0  0  0  0  0  0
    4.2150    2.0960   18.7170 C   0  0  0  0  0  0  0  0  0  0  0  0
    4.6510    1.7710   17.4240 C   0  0  0  0  0  0  0  0  0  0  0  0
    5.5390    0.7820   17.1720 N   0  0  0  0  0  0  0  0  0  0  0  0
    6.0640    0.1410   18.2360 C   0  0  0  0  0  0  0  0  0  0  0  0
    9.6330    0.0680   23.8290 C   0  0  0  0  0  0  0  0  0  0  0  0
   10.9100    0.4580   24.2590 C   0  0  0  0  0  0  0  0  0  0  0  0
  1  2  2  0
  2  3  1  0
  2  5  1  0
  3  4  1  0
  5  6  1  0
  6 21  2  0
  6  7  1  0
  7  8  2  0
  8  9  1  0
  9 10  1  0
  9 20  2  0
 10 11  1  0
 11 12  2  0
 11 13  1  0
 13 14  1  0
 14 15  2  0
 14 19  1  0
 15 16  1  0
 16 17  2  0
 17 18  1  0
 18 19  2  0
 20 21  1  0
M  END
>  <original SMILES>  (97) 
C=C(CC)Cc1ccc(NC(=O)Nc2cccnc2)cc1

>  <AutoDock Predicted Affinity>  (97) 
-5.28947

>  <ref_pdb>  (97) 
x0434_0

>  <ref_mols>  (97) 
x0434_0

>  <creator>  (97) 
Will Poole

>  <energy minimised>  (97) 
True

$$$$
WPC0823_minimised.pdb
     RDKit          3D

 20 21  0  0  1  0  0  0  0  0999 V2000
   12.9490    1.9820   23.4090 C   0  0  0  0  0  0  0  0  0  0  0  0
   13.6880    0.8650   23.4210 C   0  0  0  0  0  0  0  0  0  0  0  0
   13.2650   -0.4190   24.0970 C   0  0  2  0  0  0  0  0  0  0  0  0
   14.1440   -1.4720   23.7220 O   0  0  0  0  0  0  0  0  0  0  0  0
   11.8350   -0.7480   23.7050 C   0  0  0  0  0  0  0  0  0  0  0  0
   11.5710   -1.2620   22.4250 C   0  0  0  0  0  0  0  0  0  0  0  0
   10.2550   -1.3370   21.9580 C   0  0  0  0  0  0  0  0  0  0  0  0
    9.1970   -0.8640   22.7460 C   0  0  0  0  0  0  0  0  0  0  0  0
    7.9100   -0.7140   22.1870 N   0  0  0  0  0  0  0  0  0  0  0  0
    7.6450   -0.1960   20.9460 C   0  0  0  0  0  0  0  0  0  0  0  0
    8.4800    0.0860   20.1060 O   0  0  0  0  0  0  0  0  0  0  0  0
    6.3090   -0.0070   20.7370 N   0  0  0  0  0  0  0  0  0  0  0  0
    5.7350    0.6080   19.6010 C   0  0  0  0  0  0  0  0  0  0  0  0
    4.7630    1.6000   19.7790 C   0  0  0  0  0  0  0  0  0  0  0  0
    4.2900    2.2560   18.6360 C   0  0  0  0  0  0  0  0  0  0  0  0
    4.8010    1.9150   17.3760 C   0  0  0  0  0  0  0  0  0  0  0  0
    5.7060    0.9260   17.1910 N   0  0  0  0  0  0  0  0  0  0  0  0
    6.1720    0.3040   18.2920 C   0  0  0  0  0  0  0  0  0  0  0  0
    9.4450   -0.4280   24.0570 C   0  0  0  0  0  0  0  0  0  0  0  0
   10.7630   -0.3760   24.5400 C   0  0  0  0  0  0  0  0  0  0  0  0
  1  2  2  0
  2  3  1  0
  3  4  1  6
  3  5  1  0
  5 20  2  0
  5  6  1  0
  6  7  2  0
  7  8  1  0
  8  9  1  0
  8 19  2  0
  9 10  1  0
 10 11  2  0
 10 12  1  0
 12 13  1  0
 13 14  2  0
 13 18  1  0
 14 15  1  0
 15 16  2  0
 16 17  1  0
 17 18  2  0
 19 20  1  0
M  END
>  <original SMILES>  (98) 
C=CC(O)c1ccc(NC(=O)Nc2cccnc2)cc1

>  <AutoDock Predicted Affinity>  (98) 
-5.59797

>  <ref_pdb>  (98) 
x0434_0

>  <ref_mols>  (98) 
x0434_0

>  <creator>  (98) 
Will Poole

>  <energy minimised>  (98) 
True

$$$$
WPC0983_minimised.pdb
     RDKit          3D

 21 22  0  0  1  0  0  0  0  0999 V2000
   13.6450    3.4050   22.7150 C   0  0  0  0  0  0  0  0  0  0  0  0
   13.1210    2.1770   22.6940 C   0  0  0  0  0  0  0  0  0  0  0  0
   13.9300    0.8920   22.7480 C   0  0  0  0  0  0  0  0  0  0  0  0
   13.4020   -0.1210   23.7940 C   0  0  2  0  0  0  0  0  0  0  0  0
   14.2060   -1.2930   23.7570 O   0  0  0  0  0  0  0  0  0  0  0  0
   11.9520   -0.4820   23.5090 C   0  0  0  0  0  0  0  0  0  0  0  0
   11.6330   -1.2100   22.3510 C   0  0  0  0  0  0  0  0  0  0  0  0
   10.2970   -1.3490   21.9550 C   0  0  0  0  0  0  0  0  0  0  0  0
    9.2750   -0.7470   22.7010 C   0  0  0  0  0  0  0  0  0  0  0  0
    7.9710   -0.6650   22.1730 N   0  0  0  0  0  0  0  0  0  0  0  0
    7.6790   -0.2110   20.9140 C   0  0  0  0  0  0  0  0  0  0  0  0
    8.5050    0.0290   20.0540 O   0  0  0  0  0  0  0  0  0  0  0  0
    6.3400   -0.0240   20.7170 N   0  0  0  0  0  0  0  0  0  0  0  0
    5.7580    0.5850   19.5800 C   0  0  0  0  0  0  0  0  0  0  0  0
    4.7870    1.5760   19.7600 C   0  0  0  0  0  0  0  0  0  0  0  0
    4.3160    2.2390   18.6210 C   0  0  0  0  0  0  0  0  0  0  0  0
    4.8350    1.9090   17.3610 C   0  0  0  0  0  0  0  0  0  0  0  0
    5.7350    0.9190   17.1720 N   0  0  0  0  0  0  0  0  0  0  0  0
    6.1960    0.2870   18.2700 C   0  0  0  0  0  0  0  0  0  0  0  0
    9.5780   -0.1040   23.9100 C   0  0  0  0  0  0  0  0  0  0  0  0
   10.9150    0.0250   24.3160 C   0  0  0  0  0  0  0  0  0  0  0  0
  1  2  2  0
  2  3  1  0
  3  4  1  0
  4  5  1  6
  4  6  1  0
  6 21  2  0
  6  7  1  0
  7  8  2  0
  8  9  1  0
  9 10  1  0
  9 20  2  0
 10 11  1  0
 11 12  2  0
 11 13  1  0
 13 14  1  0
 14 15  2  0
 14 19  1  0
 15 16  1  0
 16 17  2  0
 17 18  1  0
 18 19  2  0
 20 21  1  0
M  END
>  <original SMILES>  (99) 
C=CCC(O)c1ccc(NC(=O)Nc2cccnc2)cc1

>  <AutoDock Predicted Affinity>  (99) 
-6.567025

>  <ref_pdb>  (99) 
x0434_0

>  <ref_mols>  (99) 
x0434_0

>  <creator>  (99) 
Will Poole

>  <energy minimised>  (99) 
True

$$$$
WPC0832_minimised.pdb
     RDKit          3D

 24 25  0  0  0  0  0  0  0  0999 V2000
    8.3350    4.8730   22.2490 C   0  0  0  0  0  0  0  0  0  0  0  0
    9.0670    5.8220   22.8420 C   0  0  0  0  0  0  0  0  0  0  0  0
   10.3110    5.5580   23.6550 C   0  0  0  0  0  0  0  0  0  0  0  0
   11.3390    4.9490   22.8140 N   0  0  0  0  0  0  0  0  0  0  0  0
   12.6150    4.6970   23.2530 C   0  0  0  0  0  0  0  0  0  0  0  0
   13.0020    5.1040   24.3300 O   0  0  0  0  0  0  0  0  0  0  0  0
   13.4930    3.8710   22.3250 C   0  0  0  0  0  0  0  0  0  0  0  0
   13.8390    2.1660   22.9710 S   0  0  0  0  0  0  0  0  0  0  0  0
   12.2810    1.3230   22.9080 C   0  0  0  0  0  0  0  0  0  0  0  0
   12.1300    0.2540   22.0140 C   0  0  0  0  0  0  0  0  0  0  0  0
   10.8670   -0.3260   21.8310 C   0  0  0  0  0  0  0  0  0  0  0  0
    9.7600    0.1650   22.5410 C   0  0  0  0  0  0  0  0  0  0  0  0
    8.4540   -0.2140   22.1640 N   0  0  0  0  0  0  0  0  0  0  0  0
    7.9710   -0.0330   20.8950 C   0  0  0  0  0  0  0  0  0  0  0  0
    8.6740    0.2290   19.9390 O   0  0  0  0  0  0  0  0  0  0  0  0
    6.6080   -0.0930   20.7970 N   0  0  0  0  0  0  0  0  0  0  0  0
    5.8880    0.4280   19.6940 C   0  0  0  0  0  0  0  0  0  0  0  0
    4.9270    1.4200   19.9240 C   0  0  0  0  0  0  0  0  0  0  0  0
    4.3670    2.0570   18.8080 C   0  0  0  0  0  0  0  0  0  0  0  0
    4.7930    1.7000   17.5210 C   0  0  0  0  0  0  0  0  0  0  0  0
    5.6800    0.7060   17.2870 N   0  0  0  0  0  0  0  0  0  0  0  0
    6.2240    0.0990   18.3620 C   0  0  0  0  0  0  0  0  0  0  0  0
    9.9340    1.1630   23.5120 C   0  0  0  0  0  0  0  0  0  0  0  0
   11.2000    1.7390   23.7020 C   0  0  0  0  0  0  0  0  0  0  0  0
  1  2  2  0
  2  3  1  0
  3  4  1  0
  4  5  1  0
  5  6  2  0
  5  7  1  0
  7  8  1  0
  8  9  1  0
  9 24  2  0
  9 10  1  0
 10 11  2  0
 11 12  1  0
 12 13  1  0
 12 23  2  0
 13 14  1  0
 14 15  2  0
 14 16  1  0
 16 17  1  0
 17 18  2  0
 17 22  1  0
 18 19  1  0
 19 20  2  0
 20 21  1  0
 21 22  2  0
 23 24  1  0
M  END
>  <original SMILES>  (100) 
C=CCNC(=O)CSc1ccc(NC(=O)Nc2cccnc2)cc1

>  <AutoDock Predicted Affinity>  (100) 
-6.02876

>  <ref_pdb>  (100) 
x0434_0

>  <ref_mols>  (100) 
x0434_0

>  <creator>  (100) 
Will Poole

>  <energy minimised>  (100) 
True

$$$$
WPC0770_minimised.pdb
     RDKit          3D

 22 23  0  0  0  0  0  0  0  0999 V2000
   10.7240    5.7110   23.5760 C   0  0  0  0  0  0  0  0  0  0  0  0
   12.0470    5.6870   23.7790 C   0  0  0  0  0  0  0  0  0  0  0  0
   13.0090    4.8630   22.9590 C   0  0  0  0  0  0  0  0  0  0  0  0
   12.9060    3.4710   23.3930 N   0  0  0  0  0  0  0  0  0  0  0  0
   13.8250    2.5480   22.7150 C   0  0  0  0  0  0  0  0  0  0  0  0
   13.6560    1.0960   23.2170 C   0  0  0  0  0  0  0  0  0  0  0  0
   12.2520    0.5580   23.0010 C   0  0  0  0  0  0  0  0  0  0  0  0
   11.9920   -0.3140   21.9340 C   0  0  0  0  0  0  0  0  0  0  0  0
   10.6770   -0.7200   21.6760 C   0  0  0  0  0  0  0  0  0  0  0  0
    9.6170   -0.2350   22.4560 C   0  0  0  0  0  0  0  0  0  0  0  0
    8.2830   -0.4280   22.0400 N   0  0  0  0  0  0  0  0  0  0  0  0
    7.8330   -0.1160   20.7840 C   0  0  0  0  0  0  0  0  0  0  0  0
    8.5590    0.1530   19.8460 O   0  0  0  0  0  0  0  0  0  0  0  0
    6.4710   -0.0740   20.6830 N   0  0  0  0  0  0  0  0  0  0  0  0
    5.7800    0.4900   19.5830 C   0  0  0  0  0  0  0  0  0  0  0  0
    4.8200    1.4810   19.8190 C   0  0  0  0  0  0  0  0  0  0  0  0
    4.2760    2.1380   18.7080 C   0  0  0  0  0  0  0  0  0  0  0  0
    4.7170    1.8030   17.4200 C   0  0  0  0  0  0  0  0  0  0  0  0
    5.6020    0.8110   17.1790 N   0  0  0  0  0  0  0  0  0  0  0  0
    6.1300    0.1830   18.2490 C   0  0  0  0  0  0  0  0  0  0  0  0
    9.8830    0.5660   23.5740 C   0  0  0  0  0  0  0  0  0  0  0  0
   11.2020    0.9510   23.8530 C   0  0  0  0  0  0  0  0  0  0  0  0
  1  2  2  0
  2  3  1  0
  3  4  1  0
  4  5  1  0
  5  6  1  0
  6  7  1  0
  7 22  2  0
  7  8  1  0
  8  9  2  0
  9 10  1  0
 10 11  1  0
 10 21  2  0
 11 12  1  0
 12 13  2  0
 12 14  1  0
 14 15  1  0
 15 16  2  0
 15 20  1  0
 16 17  1  0
 17 18  2  0
 18 19  1  0
 19 20  2  0
 21 22  1  0
M  END
>  <original SMILES>  (101) 
C=CCNCCc1ccc(NC(=O)Nc2cccnc2)cc1

>  <AutoDock Predicted Affinity>  (101) 
-5.858413

>  <ref_pdb>  (101) 
x0434_0

>  <ref_mols>  (101) 
x0434_0

>  <creator>  (101) 
Will Poole

>  <energy minimised>  (101) 
True

$$$$
WPC0667_minimised.pdb
     RDKit          3D

 24 25  0  0  0  0  0  0  0  0999 V2000
   11.7570    5.8600   24.1890 C   0  0  0  0  0  0  0  0  0  0  0  0
   11.6710    5.1990   23.0300 C   0  0  0  0  0  0  0  0  0  0  0  0
   12.8650    4.8350   22.1670 C   0  0  0  0  0  0  0  0  0  0  0  0
   13.7460    4.0150   22.9450 O   0  0  0  0  0  0  0  0  0  0  0  0
   13.1760    2.7390   23.1710 N   0  0  0  0  0  0  0  0  0  0  0  0
   13.9500    1.6070   23.0350 C   0  0  0  0  0  0  0  0  0  0  0  0
   15.0400    1.5980   22.5060 O   0  0  0  0  0  0  0  0  0  0  0  0
   13.3780    0.3420   23.6490 C   0  0  0  0  0  0  0  0  0  0  0  0
   11.9170    0.1000   23.3180 C   0  0  0  0  0  0  0  0  0  0  0  0
   11.5830   -0.7070   22.2190 C   0  0  0  0  0  0  0  0  0  0  0  0
   10.2420   -0.8640   21.8530 C   0  0  0  0  0  0  0  0  0  0  0  0
    9.2320   -0.2080   22.5720 C   0  0  0  0  0  0  0  0  0  0  0  0
    7.9090   -0.2100   22.0930 N   0  0  0  0  0  0  0  0  0  0  0  0
    7.5600    0.1060   20.8090 C   0  0  0  0  0  0  0  0  0  0  0  0
    8.3520    0.2780   19.9020 O   0  0  0  0  0  0  0  0  0  0  0  0
    6.2110    0.2470   20.6480 N   0  0  0  0  0  0  0  0  0  0  0  0
    5.5810    0.7750   19.4990 C   0  0  0  0  0  0  0  0  0  0  0  0
    4.6030    1.7620   19.6610 C   0  0  0  0  0  0  0  0  0  0  0  0
    4.0940    2.3660   18.5060 C   0  0  0  0  0  0  0  0  0  0  0  0
    4.5810    1.9810   17.2490 C   0  0  0  0  0  0  0  0  0  0  0  0
    5.4840    0.9870   17.0800 N   0  0  0  0  0  0  0  0  0  0  0  0
    5.9830    0.4140   18.1930 C   0  0  0  0  0  0  0  0  0  0  0  0
    9.5550    0.5350   23.7150 C   0  0  0  0  0  0  0  0  0  0  0  0
   10.8970    0.6820   24.0950 C   0  0  0  0  0  0  0  0  0  0  0  0
  1  2  2  0
  2  3  1  0
  3  4  1  0
  4  5  1  0
  5  6  1  0
  6  7  2  0
  6  8  1  0
  8  9  1  0
  9 24  2  0
  9 10  1  0
 10 11  2  0
 11 12  1  0
 12 13  1  0
 12 23  2  0
 13 14  1  0
 14 15  2  0
 14 16  1  0
 16 17  1  0
 17 18  2  0
 17 22  1  0
 18 19  1  0
 19 20  2  0
 20 21  1  0
 21 22  2  0
 23 24  1  0
M  END
>  <original SMILES>  (102) 
C=CCONC(=O)Cc1ccc(NC(=O)Nc2cccnc2)cc1

>  <AutoDock Predicted Affinity>  (102) 
-5.93284

>  <ref_pdb>  (102) 
x0434_0

>  <ref_mols>  (102) 
x0434_0

>  <creator>  (102) 
Will Poole

>  <energy minimised>  (102) 
True

$$$$
WPC0856_minimised.pdb
     RDKit          3D

 19 20  0  0  0  0  0  0  0  0999 V2000
   12.1980    3.3800   22.8640 C   0  0  0  0  0  0  0  0  0  0  0  0
   13.2220    2.5970   23.2260 C   0  0  0  0  0  0  0  0  0  0  0  0
   13.1630    1.1190   23.5850 C   0  0  0  0  0  0  0  0  0  0  0  0
   11.8270    0.4680   23.2940 C   0  0  0  0  0  0  0  0  0  0  0  0
   11.6840   -0.3470   22.1610 C   0  0  0  0  0  0  0  0  0  0  0  0
   10.4140   -0.8090   21.7980 C   0  0  0  0  0  0  0  0  0  0  0  0
    9.2860   -0.4330   22.5430 C   0  0  0  0  0  0  0  0  0  0  0  0
    7.9930   -0.6280   22.0190 N   0  0  0  0  0  0  0  0  0  0  0  0
    7.6270   -0.2540   20.7520 C   0  0  0  0  0  0  0  0  0  0  0  0
    8.4050    0.0280   19.8590 O   0  0  0  0  0  0  0  0  0  0  0  0
    6.2730   -0.1660   20.5950 N   0  0  0  0  0  0  0  0  0  0  0  0
    5.6430    0.4630   19.4960 C   0  0  0  0  0  0  0  0  0  0  0  0
    4.6920    1.4620   19.7370 C   0  0  0  0  0  0  0  0  0  0  0  0
    4.1970    2.1670   18.6330 C   0  0  0  0  0  0  0  0  0  0  0  0
    4.6760    1.8690   17.3490 C   0  0  0  0  0  0  0  0  0  0  0  0
    5.5600    0.8760   17.1040 N   0  0  0  0  0  0  0  0  0  0  0  0
    6.0400    0.2020   18.1670 C   0  0  0  0  0  0  0  0  0  0  0  0
    9.4420    0.2920   23.7320 C   0  0  0  0  0  0  0  0  0  0  0  0
   10.7170    0.7310   24.1170 C   0  0  0  0  0  0  0  0  0  0  0  0
  1  2  2  0
  2  3  1  0
  3  4  1  0
  4 19  2  0
  4  5  1  0
  5  6  2  0
  6  7  1  0
  7  8  1  0
  7 18  2  0
  8  9  1  0
  9 10  2  0
  9 11  1  0
 11 12  1  0
 12 13  2  0
 12 17  1  0
 13 14  1  0
 14 15  2  0
 15 16  1  0
 16 17  2  0
 18 19  1  0
M  END
>  <original SMILES>  (103) 
C=CCc1ccc(NC(=O)Nc2cccnc2)cc1

>  <AutoDock Predicted Affinity>  (103) 
-5.34043

>  <ref_pdb>  (103) 
x0434_0

>  <ref_mols>  (103) 
x0434_0

>  <creator>  (103) 
Will Poole

>  <energy minimised>  (103) 
True

$$$$
WPC0822_minimised.pdb
     RDKit          3D

 19 20  0  0  0  0  0  0  0  0999 V2000
   12.7540    3.5310   22.3750 C   0  0  0  0  0  0  0  0  0  0  0  0
   13.8300    2.8480   22.7840 C   0  0  0  0  0  0  0  0  0  0  0  0
   13.8420    1.1690   23.2680 S   0  0  0  0  0  0  0  0  0  0  0  0
   12.1880    0.5570   23.0720 C   0  0  0  0  0  0  0  0  0  0  0  0
   11.9380   -0.4020   22.0810 C   0  0  0  0  0  0  0  0  0  0  0  0
   10.6210   -0.7970   21.8170 C   0  0  0  0  0  0  0  0  0  0  0  0
    9.5580   -0.2250   22.5330 C   0  0  0  0  0  0  0  0  0  0  0  0
    8.2330   -0.4200   22.0980 N   0  0  0  0  0  0  0  0  0  0  0  0
    7.8130   -0.1260   20.8290 C   0  0  0  0  0  0  0  0  0  0  0  0
    8.5620    0.1290   19.9050 O   0  0  0  0  0  0  0  0  0  0  0  0
    6.4530   -0.0870   20.7030 N   0  0  0  0  0  0  0  0  0  0  0  0
    5.7760    0.4760   19.5950 C   0  0  0  0  0  0  0  0  0  0  0  0
    4.8080    1.4610   19.8240 C   0  0  0  0  0  0  0  0  0  0  0  0
    4.2690    2.1130   18.7090 C   0  0  0  0  0  0  0  0  0  0  0  0
    4.7200    1.7790   17.4240 C   0  0  0  0  0  0  0  0  0  0  0  0
    5.6150    0.7920   17.1910 N   0  0  0  0  0  0  0  0  0  0  0  0
    6.1410    0.1700   18.2660 C   0  0  0  0  0  0  0  0  0  0  0  0
    9.8160    0.6660   23.5850 C   0  0  0  0  0  0  0  0  0  0  0  0
   11.1360    1.0530   23.8610 C   0  0  0  0  0  0  0  0  0  0  0  0
  1  2  2  0
  2  3  1  0
  3  4  1  0
  4 19  2  0
  4  5  1  0
  5  6  2  0
  6  7  1  0
  7  8  1  0
  7 18  2  0
  8  9  1  0
  9 10  2  0
  9 11  1  0
 11 12  1  0
 12 13  2  0
 12 17  1  0
 13 14  1  0
 14 15  2  0
 15 16  1  0
 16 17  2  0
 18 19  1  0
M  END
>  <original SMILES>  (104) 
C=CSc1ccc(NC(=O)Nc2cccnc2)cc1

>  <AutoDock Predicted Affinity>  (104) 
-4.77873

>  <ref_pdb>  (104) 
x0434_0

>  <ref_mols>  (104) 
x0434_0

>  <creator>  (104) 
Will Poole

>  <energy minimised>  (104) 
True

$$$$
WPC0816_minimised.pdb
     RDKit          3D

 22 23  0  0  0  0  0  0  0  0999 V2000
    9.7080    4.1960   22.0480 C   0  0  0  0  0  0  0  0  0  0  0  0
   11.1610    4.0470   22.1930 C   0  0  0  0  0  0  0  0  0  0  0  0
   12.3380    3.8710   22.3360 C   0  0  0  0  0  0  0  0  0  0  0  0
   13.7760    3.6070   22.5090 C   0  0  0  0  0  0  0  0  0  0  0  0
   14.2190    2.1360   22.2670 C   0  0  0  0  0  0  0  0  0  0  0  0
   13.7140    1.0810   23.2780 C   0  0  0  0  0  0  0  0  0  0  0  0
   12.2670    0.6860   23.0820 C   0  0  0  0  0  0  0  0  0  0  0  0
   11.9220   -0.1760   22.0300 C   0  0  0  0  0  0  0  0  0  0  0  0
   10.5750   -0.4690   21.7920 C   0  0  0  0  0  0  0  0  0  0  0  0
    9.5750    0.1070   22.5850 C   0  0  0  0  0  0  0  0  0  0  0  0
    8.2320   -0.0260   22.1910 N   0  0  0  0  0  0  0  0  0  0  0  0
    7.7710    0.3390   20.9560 C   0  0  0  0  0  0  0  0  0  0  0  0
    8.4720    0.8210   20.0820 O   0  0  0  0  0  0  0  0  0  0  0  0
    6.4330    0.1210   20.7920 N   0  0  0  0  0  0  0  0  0  0  0  0
    5.7020    0.5210   19.6530 C   0  0  0  0  0  0  0  0  0  0  0  0
    4.6120    1.3810   19.8180 C   0  0  0  0  0  0  0  0  0  0  0  0
    4.0080    1.8860   18.6630 C   0  0  0  0  0  0  0  0  0  0  0  0
    4.5120    1.5290   17.4050 C   0  0  0  0  0  0  0  0  0  0  0  0
    5.5270    0.6530   17.2320 N   0  0  0  0  0  0  0  0  0  0  0  0
    6.1210    0.1820   18.3470 C   0  0  0  0  0  0  0  0  0  0  0  0
    9.9160    0.9080   23.6820 C   0  0  0  0  0  0  0  0  0  0  0  0
   11.2660    1.1920   23.9330 C   0  0  0  0  0  0  0  0  0  0  0  0
  1  2  1  0
  2  3  3  0
  3  4  1  0
  4  5  1  0
  5  6  1  0
  6  7  1  0
  7 22  2  0
  7  8  1  0
  8  9  2  0
  9 10  1  0
 10 11  1  0
 10 21  2  0
 11 12  1  0
 12 13  2  0
 12 14  1  0
 14 15  1  0
 15 16  2  0
 15 20  1  0
 16 17  1  0
 17 18  2  0
 18 19  1  0
 19 20  2  0
 21 22  1  0
M  END
>  <original SMILES>  (105) 
CC#CCCCc1ccc(NC(=O)Nc2cccnc2)cc1

>  <AutoDock Predicted Affinity>  (105) 
-5.72588

>  <ref_pdb>  (105) 
x0434_0

>  <ref_mols>  (105) 
x0434_0

>  <creator>  (105) 
Will Poole

>  <energy minimised>  (105) 
True

$$$$
WPC0660_minimised.pdb
     RDKit          3D

 22 23  0  0  0  0  0  0  0  0999 V2000
   15.6460    4.3090   19.4190 C   0  0  0  0  0  0  0  0  0  0  0  0
   14.7360    3.9870   20.5180 C   0  0  0  0  0  0  0  0  0  0  0  0
   14.0400    3.6100   21.4150 C   0  0  0  0  0  0  0  0  0  0  0  0
   13.2620    2.9970   22.4900 C   0  0  0  0  0  0  0  0  0  0  0  0
   13.9670    1.7710   22.8880 N   0  0  0  0  0  0  0  0  0  0  0  0
   13.3130    0.8710   23.8460 C   0  0  0  0  0  0  0  0  0  0  0  0
   11.8860    0.4950   23.5010 C   0  0  0  0  0  0  0  0  0  0  0  0
   11.6190   -0.5860   22.6460 C   0  0  0  0  0  0  0  0  0  0  0  0
   10.3000   -0.8660   22.2570 C   0  0  0  0  0  0  0  0  0  0  0  0
    9.2460   -0.0820   22.7510 C   0  0  0  0  0  0  0  0  0  0  0  0
    7.9430   -0.2370   22.2430 N   0  0  0  0  0  0  0  0  0  0  0  0
    7.6120    0.0150   20.9410 C   0  0  0  0  0  0  0  0  0  0  0  0
    8.4180    0.1940   20.0510 O   0  0  0  0  0  0  0  0  0  0  0  0
    6.2630    0.1030   20.7430 N   0  0  0  0  0  0  0  0  0  0  0  0
    5.6580    0.6440   19.5850 C   0  0  0  0  0  0  0  0  0  0  0  0
    4.6870    1.6400   19.7400 C   0  0  0  0  0  0  0  0  0  0  0  0
    4.2090    2.2650   18.5830 C   0  0  0  0  0  0  0  0  0  0  0  0
    4.7170    1.8900   17.3310 C   0  0  0  0  0  0  0  0  0  0  0  0
    5.6150    0.8920   17.1670 N   0  0  0  0  0  0  0  0  0  0  0  0
    6.0860    0.2990   18.2830 C   0  0  0  0  0  0  0  0  0  0  0  0
    9.5010    0.9450   23.6690 C   0  0  0  0  0  0  0  0  0  0  0  0
   10.8200    1.2340   24.0450 C   0  0  0  0  0  0  0  0  0  0  0  0
  1  2  1  0
  2  3  3  0
  3  4  1  0
  4  5  1  0
  5  6  1  0
  6  7  1  0
  7 22  2  0
  7  8  1  0
  8  9  2  0
  9 10  1  0
 10 11  1  0
 10 21  2  0
 11 12  1  0
 12 13  2  0
 12 14  1  0
 14 15  1  0
 15 16  2  0
 15 20  1  0
 16 17  1  0
 17 18  2  0
 18 19  1  0
 19 20  2  0
 21 22  1  0
M  END
>  <original SMILES>  (106) 
CC#CCNCc1ccc(NC(=O)Nc2cccnc2)cc1

>  <AutoDock Predicted Affinity>  (106) 
-5.950685

>  <ref_pdb>  (106) 
x0434_0

>  <ref_mols>  (106) 
x0434_0

>  <creator>  (106) 
Will Poole

>  <energy minimised>  (106) 
True

$$$$
WPC0450_minimised.pdb
     RDKit          3D

 21 22  0  0  0  0  0  0  0  0999 V2000
   11.8990    4.1230   23.2740 C   0  0  0  0  0  0  0  0  0  0  0  0
   13.3500    3.7520   23.1650 C   0  0  0  0  0  0  0  0  0  0  0  0
   14.3060    4.5760   23.2990 N   0  0  0  0  0  0  0  0  0  0  0  0
   13.6830    2.4700   22.8480 N   0  0  0  0  0  0  0  0  0  0  0  0
   13.3710    1.2330   23.5770 C   0  0  0  0  0  0  0  0  0  0  0  0
   12.0120    0.6690   23.2350 C   0  0  0  0  0  0  0  0  0  0  0  0
   11.8690   -0.2210   22.1590 C   0  0  0  0  0  0  0  0  0  0  0  0
   10.5950   -0.6790   21.8010 C   0  0  0  0  0  0  0  0  0  0  0  0
    9.4650   -0.2440   22.5080 C   0  0  0  0  0  0  0  0  0  0  0  0
    8.1690   -0.5130   22.0260 N   0  0  0  0  0  0  0  0  0  0  0  0
    7.7620   -0.2220   20.7520 C   0  0  0  0  0  0  0  0  0  0  0  0
    8.5120    0.0460   19.8320 O   0  0  0  0  0  0  0  0  0  0  0  0
    6.4020   -0.1900   20.6250 N   0  0  0  0  0  0  0  0  0  0  0  0
    5.7290    0.4070   19.5350 C   0  0  0  0  0  0  0  0  0  0  0  0
    4.7780    1.4020   19.7900 C   0  0  0  0  0  0  0  0  0  0  0  0
    4.2450    2.0890   18.6920 C   0  0  0  0  0  0  0  0  0  0  0  0
    4.6870    1.7750   17.3980 C   0  0  0  0  0  0  0  0  0  0  0  0
    5.5700    0.7840   17.1400 N   0  0  0  0  0  0  0  0  0  0  0  0
    6.0880    0.1290   18.1980 C   0  0  0  0  0  0  0  0  0  0  0  0
    9.6140    0.5760   23.6340 C   0  0  0  0  0  0  0  0  0  0  0  0
   10.8890    1.0240   24.0050 C   0  0  0  0  0  0  0  0  0  0  0  0
  1  2  1  0
  2  3  2  0
  2  4  1  0
  4  5  1  0
  5  6  1  0
  6 21  2  0
  6  7  1  0
  7  8  2  0
  8  9  1  0
  9 10  1  0
  9 20  2  0
 10 11  1  0
 11 12  2  0
 11 13  1  0
 13 14  1  0
 14 15  2  0
 14 19  1  0
 15 16  1  0
 16 17  2  0
 17 18  1  0
 18 19  2  0
 20 21  1  0
M  END
>  <original SMILES>  (107) 
CC(=N)NCc1ccc(NC(=O)Nc2cccnc2)cc1

>  <AutoDock Predicted Affinity>  (107) 
-6.26441

>  <ref_pdb>  (107) 
x0434_0

>  <ref_mols>  (107) 
x0434_0

>  <creator>  (107) 
Will Poole

>  <energy minimised>  (107) 
True

$$$$
WPC0731_minimised.pdb
     RDKit          3D

 24 25  0  0  0  0  0  0  0  0999 V2000
   14.8540    3.9150   20.8500 C   0  0  0  0  0  0  0  0  0  0  0  0
   14.2140    3.9020   22.2350 C   0  0  0  0  0  0  0  0  0  0  0  0
   13.9870    2.8120   22.8980 N   0  0  0  0  0  0  0  0  0  0  0  0
   14.4980    1.6000   22.5520 N   0  0  0  0  0  0  0  0  0  0  0  0
   13.9430    0.4440   23.2730 C   0  0  0  0  0  0  0  0  0  0  0  0
   12.4620    0.2270   23.0000 C   0  0  0  0  0  0  0  0  0  0  0  0
   12.0300   -0.8380   22.1890 C   0  0  0  0  0  0  0  0  0  0  0  0
   10.6650   -1.0050   21.9140 C   0  0  0  0  0  0  0  0  0  0  0  0
    9.7240   -0.1190   22.4580 C   0  0  0  0  0  0  0  0  0  0  0  0
    8.3690   -0.2000   22.0850 N   0  0  0  0  0  0  0  0  0  0  0  0
    7.9170   -0.0010   20.8110 C   0  0  0  0  0  0  0  0  0  0  0  0
    8.6400    0.1000   19.8400 O   0  0  0  0  0  0  0  0  0  0  0  0
    6.5570    0.1210   20.7320 N   0  0  0  0  0  0  0  0  0  0  0  0
    5.8540    0.6260   19.6110 C   0  0  0  0  0  0  0  0  0  0  0  0
    4.8840    1.6140   19.8160 C   0  0  0  0  0  0  0  0  0  0  0  0
    4.3030    2.2020   18.6860 C   0  0  0  0  0  0  0  0  0  0  0  0
    4.7180    1.8030   17.4080 C   0  0  0  0  0  0  0  0  0  0  0  0
    5.6100    0.8090   17.1980 N   0  0  0  0  0  0  0  0  0  0  0  0
    6.1770    0.2500   18.2880 C   0  0  0  0  0  0  0  0  0  0  0  0
   10.1420    0.9110   23.3100 C   0  0  0  0  0  0  0  0  0  0  0  0
   11.5070    1.0820   23.5820 C   0  0  0  0  0  0  0  0  0  0  0  0
   13.7820    5.1960   22.8840 C   0  0  0  0  0  0  0  0  0  0  0  0
   13.2730    5.2910   23.9890 O   0  0  0  0  0  0  0  0  0  0  0  0
   13.9810    6.3070   22.1400 O   0  0  0  0  0  0  0  0  0  0  0  0
  1  2  1  0
  2 22  1  0
  2  3  2  0
  3  4  1  0
  4  5  1  0
  5  6  1  0
  6 21  2  0
  6  7  1  0
  7  8  2  0
  8  9  1  0
  9 10  1  0
  9 20  2  0
 10 11  1  0
 11 12  2  0
 11 13  1  0
 13 14  1  0
 14 15  2  0
 14 19  1  0
 15 16  1  0
 16 17  2  0
 17 18  1  0
 18 19  2  0
 20 21  1  0
 22 23  2  0
 22 24  1  0
M  END
>  <original SMILES>  (108) 
CC(=NNCc1ccc(NC(=O)Nc2cccnc2)cc1)C(=O)O

>  <AutoDock Predicted Affinity>  (108) 
-6.26313

>  <ref_pdb>  (108) 
x0434_0

>  <ref_mols>  (108) 
x0434_0

>  <creator>  (108) 
Will Poole

>  <energy minimised>  (108) 
True

$$$$
WPC1010_minimised.pdb
     RDKit          3D

 24 25  0  0  0  0  0  0  0  0999 V2000
   12.7060    7.2070   25.4650 C   0  0  0  0  0  0  0  0  0  0  0  0
   12.0200    6.1150   24.6590 C   0  0  0  0  0  0  0  0  0  0  0  0
   10.8140    6.0890   24.4860 O   0  0  0  0  0  0  0  0  0  0  0  0
   12.9070    5.0720   24.0910 C   0  0  0  0  0  0  0  0  0  0  0  0
   12.4640    3.9830   23.4370 C   0  0  0  0  0  0  0  0  0  0  0  0
   11.1690    3.7810   23.2240 O   0  0  0  0  0  0  0  0  0  0  0  0
   13.3980    2.9570   22.8180 C   0  0  0  0  0  0  0  0  0  0  0  0
   13.3740    1.5300   23.4320 C   0  0  0  0  0  0  0  0  0  0  0  0
   12.0910    0.7710   23.1650 C   0  0  0  0  0  0  0  0  0  0  0  0
   11.9790   -0.0290   22.0190 C   0  0  0  0  0  0  0  0  0  0  0  0
   10.7450   -0.6060   21.6950 C   0  0  0  0  0  0  0  0  0  0  0  0
    9.6150   -0.3580   22.4900 C   0  0  0  0  0  0  0  0  0  0  0  0
    8.3190   -0.6660   22.0220 N   0  0  0  0  0  0  0  0  0  0  0  0
    7.8670   -0.3410   20.7690 C   0  0  0  0  0  0  0  0  0  0  0  0
    8.5830   -0.0610   19.8270 O   0  0  0  0  0  0  0  0  0  0  0  0
    6.5030   -0.2910   20.6800 N   0  0  0  0  0  0  0  0  0  0  0  0
    5.8160    0.3250   19.6050 C   0  0  0  0  0  0  0  0  0  0  0  0
    4.8930    1.3420   19.8800 C   0  0  0  0  0  0  0  0  0  0  0  0
    4.3510    2.0420   18.7940 C   0  0  0  0  0  0  0  0  0  0  0  0
    4.7560    1.7210   17.4900 C   0  0  0  0  0  0  0  0  0  0  0  0
    5.6120    0.7110   17.2130 N   0  0  0  0  0  0  0  0  0  0  0  0
    6.1390    0.0440   18.2590 C   0  0  0  0  0  0  0  0  0  0  0  0
    9.7530    0.3490   23.6920 C   0  0  0  0  0  0  0  0  0  0  0  0
   10.9950    0.9010   24.0370 C   0  0  0  0  0  0  0  0  0  0  0  0
  1  2  1  0
  2  3  2  0
  2  4  1  0
  4  5  2  0
  5  6  1  0
  5  7  1  0
  7  8  1  0
  8  9  1  0
  9 24  2  0
  9 10  1  0
 10 11  2  0
 11 12  1  0
 12 13  1  0
 12 23  2  0
 13 14  1  0
 14 15  2  0
 14 16  1  0
 16 17  1  0
 17 18  2  0
 17 22  1  0
 18 19  1  0
 19 20  2  0
 20 21  1  0
 21 22  2  0
 23 24  1  0
M  END
>  <original SMILES>  (109) 
CC(=O)C=C(O)CCc1ccc(NC(=O)Nc2cccnc2)cc1

>  <AutoDock Predicted Affinity>  (109) 
-6.6504

>  <ref_pdb>  (109) 
x0434_0

>  <ref_mols>  (109) 
x0434_0

>  <creator>  (109) 
Will Poole

>  <energy minimised>  (109) 
True

$$$$
WPC0474_minimised.pdb
     RDKit          3D

 22 23  0  0  0  0  0  0  0  0999 V2000
   12.0440    5.3070   23.3060 C   0  0  0  0  0  0  0  0  0  0  0  0
   13.2370    4.4580   22.8940 C   0  0  0  0  0  0  0  0  0  0  0  0
   14.3110    4.9470   22.5930 O   0  0  0  0  0  0  0  0  0  0  0  0
   13.0400    2.9940   22.9920 C   0  0  0  0  0  0  0  0  0  0  0  0
   14.0740    2.1320   22.8780 C   0  0  0  0  0  0  0  0  0  0  0  0
   13.9820    0.4120   23.1320 S   0  0  0  0  0  0  0  0  0  0  0  0
   12.2670   -0.0360   22.9920 C   0  0  0  0  0  0  0  0  0  0  0  0
   11.8750   -0.8090   21.8930 C   0  0  0  0  0  0  0  0  0  0  0  0
   10.5170   -1.0630   21.6790 C   0  0  0  0  0  0  0  0  0  0  0  0
    9.5490   -0.5130   22.5310 C   0  0  0  0  0  0  0  0  0  0  0  0
    8.1970   -0.5160   22.1330 N   0  0  0  0  0  0  0  0  0  0  0  0
    7.7760   -0.1010   20.8950 C   0  0  0  0  0  0  0  0  0  0  0  0
    8.5260    0.1960   19.9840 O   0  0  0  0  0  0  0  0  0  0  0  0
    6.4180   -0.0240   20.7710 N   0  0  0  0  0  0  0  0  0  0  0  0
    5.7490    0.5340   19.6540 C   0  0  0  0  0  0  0  0  0  0  0  0
    4.7800    1.5220   19.8620 C   0  0  0  0  0  0  0  0  0  0  0  0
    4.2460    2.1560   18.7320 C   0  0  0  0  0  0  0  0  0  0  0  0
    4.7030    1.8000   17.4550 C   0  0  0  0  0  0  0  0  0  0  0  0
    5.5980    0.8100   17.2420 N   0  0  0  0  0  0  0  0  0  0  0  0
    6.1200    0.2080   18.3300 C   0  0  0  0  0  0  0  0  0  0  0  0
    9.9440    0.1640   23.6920 C   0  0  0  0  0  0  0  0  0  0  0  0
   11.3100    0.3810   23.9350 C   0  0  0  0  0  0  0  0  0  0  0  0
  1  2  1  0
  2  3  2  0
  2  4  1  0
  4  5  2  0
  5  6  1  0
  6  7  1  0
  7 22  2  0
  7  8  1  0
  8  9  2  0
  9 10  1  0
 10 11  1  0
 10 21  2  0
 11 12  1  0
 12 13  2  0
 12 14  1  0
 14 15  1  0
 15 16  2  0
 15 20  1  0
 16 17  1  0
 17 18  2  0
 18 19  1  0
 19 20  2  0
 21 22  1  0
M  END
>  <original SMILES>  (110) 
CC(=O)C=CSc1ccc(NC(=O)Nc2cccnc2)cc1

>  <AutoDock Predicted Affinity>  (110) 
-5.63051

>  <ref_pdb>  (110) 
x0434_0

>  <ref_mols>  (110) 
x0434_0

>  <creator>  (110) 
Will Poole

>  <energy minimised>  (110) 
True

$$$$
WPC0734_minimised.pdb
     RDKit          3D

 21 22  0  0  0  0  0  0  0  0999 V2000
   12.4900    3.7880   22.0360 C   0  0  0  0  0  0  0  0  0  0  0  0
   13.8190    3.3750   22.6450 C   0  0  0  0  0  0  0  0  0  0  0  0
   14.4500    4.1590   23.3310 O   0  0  0  0  0  0  0  0  0  0  0  0
   14.3400    1.9690   22.3310 C   0  0  0  0  0  0  0  0  0  0  0  0
   13.8330    0.8470   23.2610 C   0  0  0  0  0  0  0  0  0  0  0  0
   12.3770    0.5040   23.0340 C   0  0  0  0  0  0  0  0  0  0  0  0
   12.0300   -0.4180   22.0340 C   0  0  0  0  0  0  0  0  0  0  0  0
   10.6810   -0.6920   21.7800 C   0  0  0  0  0  0  0  0  0  0  0  0
    9.6760   -0.0360   22.5060 C   0  0  0  0  0  0  0  0  0  0  0  0
    8.3280   -0.1730   22.1190 N   0  0  0  0  0  0  0  0  0  0  0  0
    7.8730    0.0770   20.8530 C   0  0  0  0  0  0  0  0  0  0  0  0
    8.5990    0.3150   19.9070 O   0  0  0  0  0  0  0  0  0  0  0  0
    6.5100    0.0800   20.7500 N   0  0  0  0  0  0  0  0  0  0  0  0
    5.8020    0.5770   19.6300 C   0  0  0  0  0  0  0  0  0  0  0  0
    4.8150    1.5470   19.8340 C   0  0  0  0  0  0  0  0  0  0  0  0
    4.2490    2.1450   18.7020 C   0  0  0  0  0  0  0  0  0  0  0  0
    4.6930    1.7720   17.4250 C   0  0  0  0  0  0  0  0  0  0  0  0
    5.6040    0.7940   17.2160 N   0  0  0  0  0  0  0  0  0  0  0  0
    6.1560    0.2270   18.3080 C   0  0  0  0  0  0  0  0  0  0  0  0
   10.0200    0.8420   23.5420 C   0  0  0  0  0  0  0  0  0  0  0  0
   11.3710    1.1080   23.8110 C   0  0  0  0  0  0  0  0  0  0  0  0
  1  2  1  0
  2  3  2  0
  2  4  1  0
  4  5  1  0
  5  6  1  0
  6 21  2  0
  6  7  1  0
  7  8  2  0
  8  9  1  0
  9 10  1  0
  9 20  2  0
 10 11  1  0
 11 12  2  0
 11 13  1  0
 13 14  1  0
 14 15  2  0
 14 19  1  0
 15 16  1  0
 16 17  2  0
 17 18  1  0
 18 19  2  0
 20 21  1  0
M  END
>  <original SMILES>  (111) 
CC(=O)CCc1ccc(NC(=O)Nc2cccnc2)cc1

>  <AutoDock Predicted Affinity>  (111) 
-6.091273

>  <ref_pdb>  (111) 
x0434_0

>  <ref_mols>  (111) 
x0434_0

>  <creator>  (111) 
Will Poole

>  <energy minimised>  (111) 
True

$$$$
WPC0423_minimised.pdb
     RDKit          3D

 21 22  0  0  0  0  0  0  0  0999 V2000
   14.2390    4.5400   22.5150 C   0  0  0  0  0  0  0  0  0  0  0  0
   13.5370    3.2370   22.1640 C   0  0  0  0  0  0  0  0  0  0  0  0
   12.3460    3.2190   21.9390 O   0  0  0  0  0  0  0  0  0  0  0  0
   14.4010    1.9820   22.0660 C   0  0  0  0  0  0  0  0  0  0  0  0
   14.0050    0.7210   23.3500 S   0  0  0  0  0  0  0  0  0  0  0  0
   12.2990    0.3180   23.0690 C   0  0  0  0  0  0  0  0  0  0  0  0
   11.9570   -0.6710   22.1360 C   0  0  0  0  0  0  0  0  0  0  0  0
   10.6050   -0.9460   21.8750 C   0  0  0  0  0  0  0  0  0  0  0  0
    9.5970   -0.2270   22.5390 C   0  0  0  0  0  0  0  0  0  0  0  0
    8.2440   -0.3700   22.1650 N   0  0  0  0  0  0  0  0  0  0  0  0
    7.7850   -0.2200   20.8840 C   0  0  0  0  0  0  0  0  0  0  0  0
    8.4990   -0.1930   19.9030 O   0  0  0  0  0  0  0  0  0  0  0  0
    6.4320   -0.0350   20.8040 N   0  0  0  0  0  0  0  0  0  0  0  0
    5.7660    0.5080   19.6780 C   0  0  0  0  0  0  0  0  0  0  0  0
    4.8430    1.5410   19.8800 C   0  0  0  0  0  0  0  0  0  0  0  0
    4.3110    2.1700   18.7480 C   0  0  0  0  0  0  0  0  0  0  0  0
    4.7280    1.7690   17.4710 C   0  0  0  0  0  0  0  0  0  0  0  0
    5.5780    0.7380   17.2640 N   0  0  0  0  0  0  0  0  0  0  0  0
    6.0910    0.1330   18.3540 C   0  0  0  0  0  0  0  0  0  0  0  0
    9.9420    0.7250   23.5090 C   0  0  0  0  0  0  0  0  0  0  0  0
   11.2920    0.9950   23.7760 C   0  0  0  0  0  0  0  0  0  0  0  0
  1  2  1  0
  2  3  2  0
  2  4  1  0
  4  5  1  0
  5  6  1  0
  6 21  2  0
  6  7  1  0
  7  8  2  0
  8  9  1  0
  9 10  1  0
  9 20  2  0
 10 11  1  0
 11 12  2  0
 11 13  1  0
 13 14  1  0
 14 15  2  0
 14 19  1  0
 15 16  1  0
 16 17  2  0
 17 18  1  0
 18 19  2  0
 20 21  1  0
M  END
>  <original SMILES>  (112) 
CC(=O)CSc1ccc(NC(=O)Nc2cccnc2)cc1

>  <AutoDock Predicted Affinity>  (112) 
-5.252325

>  <ref_pdb>  (112) 
x0434_0

>  <ref_mols>  (112) 
x0434_0

>  <creator>  (112) 
Will Poole

>  <energy minimised>  (112) 
True

$$$$
WPC0957_minimised.pdb
     RDKit          3D

 20 21  0  0  0  0  0  0  0  0999 V2000
   14.8720    1.8930   22.1090 C   0  0  0  0  0  0  0  0  0  0  0  0
   13.6370    1.8710   22.9860 C   0  0  0  0  0  0  0  0  0  0  0  0
   13.0210    2.8880   23.2430 O   0  0  0  0  0  0  0  0  0  0  0  0
   13.2600    0.5050   23.5470 C   0  0  0  0  0  0  0  0  0  0  0  0
   11.8180    0.1420   23.2480 C   0  0  0  0  0  0  0  0  0  0  0  0
   11.5160   -0.8150   22.2630 C   0  0  0  0  0  0  0  0  0  0  0  0
   10.1800   -1.0670   21.9220 C   0  0  0  0  0  0  0  0  0  0  0  0
    9.1460   -0.3640   22.5590 C   0  0  0  0  0  0  0  0  0  0  0  0
    7.8200   -0.4600   22.0920 N   0  0  0  0  0  0  0  0  0  0  0  0
    7.4560   -0.2230   20.7940 C   0  0  0  0  0  0  0  0  0  0  0  0
    8.2320   -0.1630   19.8620 O   0  0  0  0  0  0  0  0  0  0  0  0
    6.1160    0.0050   20.6520 N   0  0  0  0  0  0  0  0  0  0  0  0
    5.5160    0.6040   19.5190 C   0  0  0  0  0  0  0  0  0  0  0  0
    4.5890    1.6350   19.7160 C   0  0  0  0  0  0  0  0  0  0  0  0
    4.1140    2.3080   18.5830 C   0  0  0  0  0  0  0  0  0  0  0  0
    4.5850    1.9460   17.3140 C   0  0  0  0  0  0  0  0  0  0  0  0
    5.4440    0.9220   17.1110 N   0  0  0  0  0  0  0  0  0  0  0  0
    5.9060    0.2780   18.2010 C   0  0  0  0  0  0  0  0  0  0  0  0
    9.4420    0.5410   23.5870 C   0  0  0  0  0  0  0  0  0  0  0  0
   10.7780    0.7920   23.9340 C   0  0  0  0  0  0  0  0  0  0  0  0
  1  2  1  0
  2  3  2  0
  2  4  1  0
  4  5  1  0
  5 20  2  0
  5  6  1  0
  6  7  2  0
  7  8  1  0
  8  9  1  0
  8 19  2  0
  9 10  1  0
 10 11  2  0
 10 12  1  0
 12 13  1  0
 13 14  2  0
 13 18  1  0
 14 15  1  0
 15 16  2  0
 16 17  1  0
 17 18  2  0
 19 20  1  0
M  END
>  <original SMILES>  (113) 
CC(=O)Cc1ccc(NC(=O)Nc2cccnc2)cc1

>  <AutoDock Predicted Affinity>  (113) 
-5.465945

>  <ref_pdb>  (113) 
x0434_0

>  <ref_mols>  (113) 
x0434_0

>  <creator>  (113) 
Will Poole

>  <energy minimised>  (113) 
True

$$$$
WPC0778_minimised.pdb
     RDKit          3D

 22 23  0  0  0  0  0  0  0  0999 V2000
   13.1220    4.6750   22.5410 C   0  0  0  0  0  0  0  0  0  0  0  0
   12.7740    3.4540   23.3840 C   0  0  0  0  0  0  0  0  0  0  0  0
   11.9950    3.5610   24.3130 O   0  0  0  0  0  0  0  0  0  0  0  0
   13.4200    2.2510   23.1010 N   0  0  0  0  0  0  0  0  0  0  0  0
   14.4290    2.1060   22.0450 C   0  0  0  0  0  0  0  0  0  0  0  0
   13.1140    1.0150   23.8380 C   0  0  0  0  0  0  0  0  0  0  0  0
   11.7830    0.4270   23.4320 C   0  0  0  0  0  0  0  0  0  0  0  0
   11.6870   -0.3970   22.3000 C   0  0  0  0  0  0  0  0  0  0  0  0
   10.4290   -0.8300   21.8620 C   0  0  0  0  0  0  0  0  0  0  0  0
    9.2690   -0.4230   22.5370 C   0  0  0  0  0  0  0  0  0  0  0  0
    7.9960   -0.6420   21.9770 N   0  0  0  0  0  0  0  0  0  0  0  0
    7.6620   -0.2990   20.6950 C   0  0  0  0  0  0  0  0  0  0  0  0
    8.4590   -0.0580   19.8080 O   0  0  0  0  0  0  0  0  0  0  0  0
    6.3110   -0.1880   20.5250 N   0  0  0  0  0  0  0  0  0  0  0  0
    5.6950    0.4580   19.4290 C   0  0  0  0  0  0  0  0  0  0  0  0
    4.7390    1.4500   19.6790 C   0  0  0  0  0  0  0  0  0  0  0  0
    4.2510    2.1730   18.5840 C   0  0  0  0  0  0  0  0  0  0  0  0
    4.7400    1.8990   17.3000 C   0  0  0  0  0  0  0  0  0  0  0  0
    5.6300    0.9130   17.0450 N   0  0  0  0  0  0  0  0  0  0  0  0
    6.1050    0.2220   18.1000 C   0  0  0  0  0  0  0  0  0  0  0  0
    9.3690    0.3360   23.7110 C   0  0  0  0  0  0  0  0  0  0  0  0
   10.6270    0.7560   24.1630 C   0  0  0  0  0  0  0  0  0  0  0  0
  1  2  1  0
  2  3  2  0
  2  4  1  0
  4  5  1  0
  4  6  1  0
  6  7  1  0
  7 22  2  0
  7  8  1  0
  8  9  2  0
  9 10  1  0
 10 11  1  0
 10 21  2  0
 11 12  1  0
 12 13  2  0
 12 14  1  0
 14 15  1  0
 15 16  2  0
 15 20  1  0
 16 17  1  0
 17 18  2  0
 18 19  1  0
 19 20  2  0
 21 22  1  0
M  END
>  <original SMILES>  (114) 
CC(=O)N(C)Cc1ccc(NC(=O)Nc2cccnc2)cc1

>  <AutoDock Predicted Affinity>  (114) 
-6.20037

>  <ref_pdb>  (114) 
x0434_0

>  <ref_mols>  (114) 
x0434_0

>  <creator>  (114) 
Will Poole

>  <energy minimised>  (114) 
True

$$$$
WPC0740_minimised.pdb
     RDKit          3D

 23 24  0  0  0  0  0  0  0  0999 V2000
   12.1290    5.4050   23.5720 C   0  0  0  0  0  0  0  0  0  0  0  0
   11.4120    4.0670   23.5380 C   0  0  0  0  0  0  0  0  0  0  0  0
   10.3100    3.9090   24.0190 O   0  0  0  0  0  0  0  0  0  0  0  0
   12.0740    3.0050   22.9790 N   0  0  0  0  0  0  0  0  0  0  0  0
   13.4890    2.9640   22.5980 C   0  0  0  0  0  0  0  0  0  0  0  0
   14.0080    1.5370   22.3050 C   0  0  0  0  0  0  0  0  0  0  0  0
   13.6330    0.4550   23.3440 C   0  0  0  0  0  0  0  0  0  0  0  0
   12.2060   -0.0380   23.1690 C   0  0  0  0  0  0  0  0  0  0  0  0
   11.8890   -0.8520   22.0700 C   0  0  0  0  0  0  0  0  0  0  0  0
   10.5500   -1.1420   21.7870 C   0  0  0  0  0  0  0  0  0  0  0  0
    9.5260   -0.5940   22.5700 C   0  0  0  0  0  0  0  0  0  0  0  0
    8.1960   -0.6240   22.1040 N   0  0  0  0  0  0  0  0  0  0  0  0
    7.8270   -0.2240   20.8460 C   0  0  0  0  0  0  0  0  0  0  0  0
    8.6040    0.0200   19.9430 O   0  0  0  0  0  0  0  0  0  0  0  0
    6.4760   -0.0870   20.7030 N   0  0  0  0  0  0  0  0  0  0  0  0
    5.8390    0.5120   19.5900 C   0  0  0  0  0  0  0  0  0  0  0  0
    4.8750    1.5010   19.8120 C   0  0  0  0  0  0  0  0  0  0  0  0
    4.3550    2.1650   18.6940 C   0  0  0  0  0  0  0  0  0  0  0  0
    4.8250    1.8410   17.4140 C   0  0  0  0  0  0  0  0  0  0  0  0
    5.7200    0.8540   17.1850 N   0  0  0  0  0  0  0  0  0  0  0  0
    6.2250    0.2190   18.2630 C   0  0  0  0  0  0  0  0  0  0  0  0
    9.8420    0.1210   23.7320 C   0  0  0  0  0  0  0  0  0  0  0  0
   11.1840    0.3760   24.0460 C   0  0  0  0  0  0  0  0  0  0  0  0
  1  2  1  0
  2  3  2  0
  2  4  1  0
  4  5  1  0
  5  6  1  0
  6  7  1  0
  7  8  1  0
  8 23  2  0
  8  9  1  0
  9 10  2  0
 10 11  1  0
 11 12  1  0
 11 22  2  0
 12 13  1  0
 13 14  2  0
 13 15  1  0
 15 16  1  0
 16 17  2  0
 16 21  1  0
 17 18  1  0
 18 19  2  0
 19 20  1  0
 20 21  2  0
 22 23  1  0
M  END
>  <original SMILES>  (115) 
CC(=O)NCCCc1ccc(NC(=O)Nc2cccnc2)cc1

>  <AutoDock Predicted Affinity>  (115) 
-6.092713

>  <ref_pdb>  (115) 
x0434_0

>  <ref_mols>  (115) 
x0434_0

>  <creator>  (115) 
Will Poole

>  <energy minimised>  (115) 
True

$$$$
WPC0614_minimised.pdb
     RDKit          3D

 23 24  0  0  0  0  0  0  0  0999 V2000
   14.0970    6.0490   21.9460 C   0  0  0  0  0  0  0  0  0  0  0  0
   13.3440    5.1070   22.8630 C   0  0  0  0  0  0  0  0  0  0  0  0
   13.4270    5.1530   24.0730 O   0  0  0  0  0  0  0  0  0  0  0  0
   12.6550    4.1110   22.2260 N   0  0  0  0  0  0  0  0  0  0  0  0
   12.4190    2.8140   22.8500 C   0  0  0  0  0  0  0  0  0  0  0  0
   13.6530    1.9090   22.6710 C   0  0  0  0  0  0  0  0  0  0  0  0
   13.5480    0.4450   23.7640 S   0  0  0  0  0  0  0  0  0  0  0  0
   11.9080   -0.1200   23.4140 C   0  0  0  0  0  0  0  0  0  0  0  0
   11.6780   -0.8440   22.2390 C   0  0  0  0  0  0  0  0  0  0  0  0
   10.3620   -1.1080   21.8400 C   0  0  0  0  0  0  0  0  0  0  0  0
    9.2850   -0.6270   22.6010 C   0  0  0  0  0  0  0  0  0  0  0  0
    7.9810   -0.6560   22.0670 N   0  0  0  0  0  0  0  0  0  0  0  0
    7.6590   -0.1980   20.8150 C   0  0  0  0  0  0  0  0  0  0  0  0
    8.4710    0.1270   19.9680 O   0  0  0  0  0  0  0  0  0  0  0  0
    6.3110   -0.1050   20.6160 N   0  0  0  0  0  0  0  0  0  0  0  0
    5.7070    0.5210   19.5020 C   0  0  0  0  0  0  0  0  0  0  0  0
    4.7310    1.5010   19.7170 C   0  0  0  0  0  0  0  0  0  0  0  0
    4.2570    2.2010   18.6010 C   0  0  0  0  0  0  0  0  0  0  0  0
    4.7790    1.9170   17.3310 C   0  0  0  0  0  0  0  0  0  0  0  0
    5.6840    0.9360   17.1080 N   0  0  0  0  0  0  0  0  0  0  0  0
    6.1440    0.2680   18.1840 C   0  0  0  0  0  0  0  0  0  0  0  0
    9.5190    0.0160   23.8250 C   0  0  0  0  0  0  0  0  0  0  0  0
   10.8360    0.2640   24.2380 C   0  0  0  0  0  0  0  0  0  0  0  0
  1  2  1  0
  2  3  2  0
  2  4  1  0
  4  5  1  0
  5  6  1  0
  6  7  1  0
  7  8  1  0
  8 23  2  0
  8  9  1  0
  9 10  2  0
 10 11  1  0
 11 12  1  0
 11 22  2  0
 12 13  1  0
 13 14  2  0
 13 15  1  0
 15 16  1  0
 16 17  2  0
 16 21  1  0
 17 18  1  0
 18 19  2  0
 19 20  1  0
 20 21  2  0
 22 23  1  0
M  END
>  <original SMILES>  (116) 
CC(=O)NCCSc1ccc(NC(=O)Nc2cccnc2)cc1

>  <AutoDock Predicted Affinity>  (116) 
-6.03731

>  <ref_pdb>  (116) 
x0434_0

>  <ref_mols>  (116) 
x0434_0

>  <creator>  (116) 
Will Poole

>  <energy minimised>  (116) 
True

$$$$
WPC1012_minimised.pdb
     RDKit          3D

 22 23  0  0  0  0  0  0  0  0999 V2000
   12.4140    5.0820   23.1010 C   0  0  0  0  0  0  0  0  0  0  0  0
   13.6120    4.1800   22.8880 C   0  0  0  0  0  0  0  0  0  0  0  0
   14.7180    4.4560   23.3060 O   0  0  0  0  0  0  0  0  0  0  0  0
   13.3360    3.0010   22.2440 N   0  0  0  0  0  0  0  0  0  0  0  0
   14.2450    1.8430   22.2120 C   0  0  0  0  0  0  0  0  0  0  0  0
   13.7950    0.7240   23.1680 C   0  0  0  0  0  0  0  0  0  0  0  0
   12.3430    0.3390   22.9620 C   0  0  0  0  0  0  0  0  0  0  0  0
   11.9970   -0.6250   22.0030 C   0  0  0  0  0  0  0  0  0  0  0  0
   10.6460   -0.9090   21.7610 C   0  0  0  0  0  0  0  0  0  0  0  0
    9.6430   -0.2190   22.4580 C   0  0  0  0  0  0  0  0  0  0  0  0
    8.2980   -0.3470   22.0630 N   0  0  0  0  0  0  0  0  0  0  0  0
    7.8560   -0.0500   20.8030 C   0  0  0  0  0  0  0  0  0  0  0  0
    8.5940    0.1990   19.8690 O   0  0  0  0  0  0  0  0  0  0  0  0
    6.4940   -0.0080   20.6960 N   0  0  0  0  0  0  0  0  0  0  0  0
    5.8030    0.5350   19.5870 C   0  0  0  0  0  0  0  0  0  0  0  0
    4.8270    1.5130   19.8110 C   0  0  0  0  0  0  0  0  0  0  0  0
    4.2780    2.1510   18.6910 C   0  0  0  0  0  0  0  0  0  0  0  0
    4.7300    1.8120   17.4090 C   0  0  0  0  0  0  0  0  0  0  0  0
    5.6310    0.8290   17.1800 N   0  0  0  0  0  0  0  0  0  0  0  0
    6.1630    0.2190   18.2580 C   0  0  0  0  0  0  0  0  0  0  0  0
    9.9860    0.7020   23.4550 C   0  0  0  0  0  0  0  0  0  0  0  0
   11.3370    0.9770   23.7100 C   0  0  0  0  0  0  0  0  0  0  0  0
  1  2  1  0
  2  3  2  0
  2  4  1  0
  4  5  1  0
  5  6  1  0
  6  7  1  0
  7 22  2  0
  7  8  1  0
  8  9  2  0
  9 10  1  0
 10 11  1  0
 10 21  2  0
 11 12  1  0
 12 13  2  0
 12 14  1  0
 14 15  1  0
 15 16  2  0
 15 20  1  0
 16 17  1  0
 17 18  2  0
 18 19  1  0
 19 20  2  0
 21 22  1  0
M  END
>  <original SMILES>  (117) 
CC(=O)NCCc1ccc(NC(=O)Nc2cccnc2)cc1

>  <AutoDock Predicted Affinity>  (117) 
-6.81131

>  <ref_pdb>  (117) 
x0434_0

>  <ref_mols>  (117) 
x0434_0

>  <creator>  (117) 
Will Poole

>  <energy minimised>  (117) 
True

$$$$
WPC0597_minimised.pdb
     RDKit          3D

 21 22  0  0  0  0  0  0  0  0999 V2000
   11.6910    3.7000   23.3470 C   0  0  0  0  0  0  0  0  0  0  0  0
   13.1340    3.5110   22.9090 C   0  0  0  0  0  0  0  0  0  0  0  0
   13.8040    4.4320   22.4910 O   0  0  0  0  0  0  0  0  0  0  0  0
   13.7170    2.2680   22.9880 N   0  0  0  0  0  0  0  0  0  0  0  0
   13.2840    1.0720   23.7270 C   0  0  0  0  0  0  0  0  0  0  0  0
   11.9470    0.4930   23.3320 C   0  0  0  0  0  0  0  0  0  0  0  0
   11.8300   -0.2610   22.1560 C   0  0  0  0  0  0  0  0  0  0  0  0
   10.5700   -0.7180   21.7500 C   0  0  0  0  0  0  0  0  0  0  0  0
    9.4270   -0.4080   22.5030 C   0  0  0  0  0  0  0  0  0  0  0  0
    8.1380   -0.6410   21.9850 N   0  0  0  0  0  0  0  0  0  0  0  0
    7.7430   -0.2790   20.7260 C   0  0  0  0  0  0  0  0  0  0  0  0
    8.5000    0.0270   19.8240 O   0  0  0  0  0  0  0  0  0  0  0  0
    6.3840   -0.2310   20.5900 N   0  0  0  0  0  0  0  0  0  0  0  0
    5.7210    0.3920   19.5070 C   0  0  0  0  0  0  0  0  0  0  0  0
    4.7670    1.3820   19.7720 C   0  0  0  0  0  0  0  0  0  0  0  0
    4.2400    2.0840   18.6810 C   0  0  0  0  0  0  0  0  0  0  0  0
    4.6900    1.7920   17.3860 C   0  0  0  0  0  0  0  0  0  0  0  0
    5.5780    0.8070   17.1190 N   0  0  0  0  0  0  0  0  0  0  0  0
    6.0910    0.1370   18.1690 C   0  0  0  0  0  0  0  0  0  0  0  0
    9.5580    0.2560   23.7280 C   0  0  0  0  0  0  0  0  0  0  0  0
   10.8200    0.6910   24.1530 C   0  0  0  0  0  0  0  0  0  0  0  0
  1  2  1  0
  2  3  2  0
  2  4  1  0
  4  5  1  0
  5  6  1  0
  6 21  2  0
  6  7  1  0
  7  8  2  0
  8  9  1  0
  9 10  1  0
  9 20  2  0
 10 11  1  0
 11 12  2  0
 11 13  1  0
 13 14  1  0
 14 15  2  0
 14 19  1  0
 15 16  1  0
 16 17  2  0
 17 18  1  0
 18 19  2  0
 20 21  1  0
M  END
>  <original SMILES>  (118) 
CC(=O)NCc1ccc(NC(=O)Nc2cccnc2)cc1

>  <AutoDock Predicted Affinity>  (118) 
-6.23616

>  <ref_pdb>  (118) 
x0434_0

>  <ref_mols>  (118) 
x0434_0

>  <creator>  (118) 
Will Poole

>  <energy minimised>  (118) 
True

$$$$
WPC0914_minimised.pdb
     RDKit          3D

 23 24  0  0  0  0  0  0  0  0999 V2000
   14.2410    6.2600   21.7580 C   0  0  0  0  0  0  0  0  0  0  0  0
   13.5030    4.9450   21.8380 C   0  0  0  0  0  0  0  0  0  0  0  0
   13.0780    4.3690   20.8570 O   0  0  0  0  0  0  0  0  0  0  0  0
   13.4000    4.4450   23.1220 N   0  0  0  0  0  0  0  0  0  0  0  0
   12.9020    3.1540   23.4380 N   0  0  0  0  0  0  0  0  0  0  0  0
   13.7950    2.0780   22.9750 C   0  0  0  0  0  0  0  0  0  0  0  0
   13.4520    0.7050   23.5860 C   0  0  0  0  0  0  0  0  0  0  0  0
   12.0240    0.2790   23.3020 C   0  0  0  0  0  0  0  0  0  0  0  0
   11.7520   -0.6160   22.2550 C   0  0  0  0  0  0  0  0  0  0  0  0
   10.4250   -0.8990   21.9080 C   0  0  0  0  0  0  0  0  0  0  0  0
    9.3700   -0.2860   22.5990 C   0  0  0  0  0  0  0  0  0  0  0  0
    8.0520   -0.3860   22.1140 N   0  0  0  0  0  0  0  0  0  0  0  0
    7.6910   -0.0930   20.8270 C   0  0  0  0  0  0  0  0  0  0  0  0
    8.4710    0.0810   19.9100 O   0  0  0  0  0  0  0  0  0  0  0  0
    6.3390    0.0360   20.6800 N   0  0  0  0  0  0  0  0  0  0  0  0
    5.6960    0.5910   19.5500 C   0  0  0  0  0  0  0  0  0  0  0  0
    4.7270    1.5810   19.7480 C   0  0  0  0  0  0  0  0  0  0  0  0
    4.1970    2.2070   18.6140 C   0  0  0  0  0  0  0  0  0  0  0  0
    4.6570    1.8400   17.3420 C   0  0  0  0  0  0  0  0  0  0  0  0
    5.5560    0.8500   17.1380 N   0  0  0  0  0  0  0  0  0  0  0  0
    6.0770    0.2570   18.2320 C   0  0  0  0  0  0  0  0  0  0  0  0
    9.6370    0.5320   23.7050 C   0  0  0  0  0  0  0  0  0  0  0  0
   10.9640    0.8080   24.0620 C   0  0  0  0  0  0  0  0  0  0  0  0
  1  2  1  0
  2  3  2  0
  2  4  1  0
  4  5  1  0
  5  6  1  0
  6  7  1  0
  7  8  1  0
  8 23  2  0
  8  9  1  0
  9 10  2  0
 10 11  1  0
 11 12  1  0
 11 22  2  0
 12 13  1  0
 13 14  2  0
 13 15  1  0
 15 16  1  0
 16 17  2  0
 16 21  1  0
 17 18  1  0
 18 19  2  0
 19 20  1  0
 20 21  2  0
 22 23  1  0
M  END
>  <original SMILES>  (119) 
CC(=O)NNCCc1ccc(NC(=O)Nc2cccnc2)cc1

>  <AutoDock Predicted Affinity>  (119) 
-6.273635

>  <ref_pdb>  (119) 
x0434_0

>  <ref_mols>  (119) 
x0434_0

>  <creator>  (119) 
Will Poole

>  <energy minimised>  (119) 
True

$$$$
WPC0559_minimised.pdb
     RDKit          3D

 24 25  0  0  0  0  0  0  0  0999 V2000
   11.4140    6.2920   24.5770 C   0  0  0  0  0  0  0  0  0  0  0  0
   12.5560    5.5200   23.9640 C   0  0  0  0  0  0  0  0  0  0  0  0
   13.4850    5.0990   24.6200 O   0  0  0  0  0  0  0  0  0  0  0  0
   12.3380    5.2450   22.6520 O   0  0  0  0  0  0  0  0  0  0  0  0
   13.1920    4.2910   22.0000 C   0  0  0  0  0  0  0  0  0  0  0  0
   12.8210    2.8840   22.5200 C   0  0  0  0  0  0  0  0  0  0  0  0
   13.9790    1.8560   22.4650 C   0  0  0  0  0  0  0  0  0  0  0  0
   13.7440    0.6550   23.4100 C   0  0  0  0  0  0  0  0  0  0  0  0
   12.3430    0.0990   23.2360 C   0  0  0  0  0  0  0  0  0  0  0  0
   12.0460   -0.6940   22.1170 C   0  0  0  0  0  0  0  0  0  0  0  0
   10.7130   -1.0120   21.8280 C   0  0  0  0  0  0  0  0  0  0  0  0
    9.6750   -0.5160   22.6310 C   0  0  0  0  0  0  0  0  0  0  0  0
    8.3390   -0.5890   22.1840 N   0  0  0  0  0  0  0  0  0  0  0  0
    7.9280   -0.1940   20.9370 C   0  0  0  0  0  0  0  0  0  0  0  0
    8.6770    0.0940   20.0230 O   0  0  0  0  0  0  0  0  0  0  0  0
    6.5690   -0.1100   20.8130 N   0  0  0  0  0  0  0  0  0  0  0  0
    5.9010    0.4540   19.7000 C   0  0  0  0  0  0  0  0  0  0  0  0
    4.9410    1.4500   19.9140 C   0  0  0  0  0  0  0  0  0  0  0  0
    4.3990    2.0850   18.7890 C   0  0  0  0  0  0  0  0  0  0  0  0
    4.8390    1.7210   17.5080 C   0  0  0  0  0  0  0  0  0  0  0  0
    5.7270    0.7260   17.2890 N   0  0  0  0  0  0  0  0  0  0  0  0
    6.2580    0.1240   18.3730 C   0  0  0  0  0  0  0  0  0  0  0  0
    9.9760    0.1890   23.8040 C   0  0  0  0  0  0  0  0  0  0  0  0
   11.3110    0.4870   24.1130 C   0  0  0  0  0  0  0  0  0  0  0  0
  1  2  1  0
  2  3  2  0
  2  4  1  0
  4  5  1  0
  5  6  1  0
  6  7  1  0
  7  8  1  0
  8  9  1  0
  9 24  2  0
  9 10  1  0
 10 11  2  0
 11 12  1  0
 12 13  1  0
 12 23  2  0
 13 14  1  0
 14 15  2  0
 14 16  1  0
 16 17  1  0
 17 18  2  0
 17 22  1  0
 18 19  1  0
 19 20  2  0
 20 21  1  0
 21 22  2  0
 23 24  1  0
M  END
>  <original SMILES>  (120) 
CC(=O)OCCCCc1ccc(NC(=O)Nc2cccnc2)cc1

>  <AutoDock Predicted Affinity>  (120) 
-6.13254

>  <ref_pdb>  (120) 
x0434_0

>  <ref_mols>  (120) 
x0434_0

>  <creator>  (120) 
Will Poole

>  <energy minimised>  (120) 
True

$$$$
WPC0706_minimised.pdb
     RDKit          3D

 23 24  0  0  0  0  0  0  0  0999 V2000
   14.0200    6.0640   22.1200 C   0  0  0  0  0  0  0  0  0  0  0  0
   13.1110    5.1500   22.9150 C   0  0  0  0  0  0  0  0  0  0  0  0
   12.3160    5.5160   23.7630 O   0  0  0  0  0  0  0  0  0  0  0  0
   13.4690    3.8720   22.6720 O   0  0  0  0  0  0  0  0  0  0  0  0
   12.7040    2.7680   23.1500 C   0  0  0  0  0  0  0  0  0  0  0  0
   13.5980    1.5430   22.8720 C   0  0  0  0  0  0  0  0  0  0  0  0
   13.2090    0.2940   23.6640 C   0  0  0  0  0  0  0  0  0  0  0  0
   11.7800   -0.1110   23.3720 C   0  0  0  0  0  0  0  0  0  0  0  0
   11.5070   -0.9040   22.2480 C   0  0  0  0  0  0  0  0  0  0  0  0
   10.1800   -1.1320   21.8640 C   0  0  0  0  0  0  0  0  0  0  0  0
    9.1290   -0.5470   22.5840 C   0  0  0  0  0  0  0  0  0  0  0  0
    7.8240   -0.5590   22.0560 N   0  0  0  0  0  0  0  0  0  0  0  0
    7.5150   -0.1620   20.7820 C   0  0  0  0  0  0  0  0  0  0  0  0
    8.3320    0.0620   19.9060 O   0  0  0  0  0  0  0  0  0  0  0  0
    6.1710   -0.0010   20.5970 N   0  0  0  0  0  0  0  0  0  0  0  0
    5.5780    0.6130   19.4710 C   0  0  0  0  0  0  0  0  0  0  0  0
    4.6090    1.6040   19.6680 C   0  0  0  0  0  0  0  0  0  0  0  0
    4.1370    2.2840   18.5390 C   0  0  0  0  0  0  0  0  0  0  0  0
    4.6520    1.9680   17.2740 C   0  0  0  0  0  0  0  0  0  0  0  0
    5.5520    0.9790   17.0690 N   0  0  0  0  0  0  0  0  0  0  0  0
    6.0110    0.3310   18.1570 C   0  0  0  0  0  0  0  0  0  0  0  0
    9.3950    0.1730   23.7570 C   0  0  0  0  0  0  0  0  0  0  0  0
   10.7220    0.3840   24.1580 C   0  0  0  0  0  0  0  0  0  0  0  0
  1  2  1  0
  2  3  2  0
  2  4  1  0
  4  5  1  0
  5  6  1  0
  6  7  1  0
  7  8  1  0
  8 23  2  0
  8  9  1  0
  9 10  2  0
 10 11  1  0
 11 12  1  0
 11 22  2  0
 12 13  1  0
 13 14  2  0
 13 15  1  0
 15 16  1  0
 16 17  2  0
 16 21  1  0
 17 18  1  0
 18 19  2  0
 19 20  1  0
 20 21  2  0
 22 23  1  0
M  END
>  <original SMILES>  (121) 
CC(=O)OCCCc1ccc(NC(=O)Nc2cccnc2)cc1

>  <AutoDock Predicted Affinity>  (121) 
-5.62923

>  <ref_pdb>  (121) 
x0434_0

>  <ref_mols>  (121) 
x0434_0

>  <creator>  (121) 
Will Poole

>  <energy minimised>  (121) 
True

$$$$
WPC0384_minimised.pdb
     RDKit          3D

 22 23  0  0  0  0  0  0  0  0999 V2000
   12.2400    5.0370   23.1650 C   0  0  0  0  0  0  0  0  0  0  0  0
   13.4340    4.1290   22.9420 C   0  0  0  0  0  0  0  0  0  0  0  0
   14.5770    4.4780   23.1760 O   0  0  0  0  0  0  0  0  0  0  0  0
   13.0350    2.8310   22.8800 O   0  0  0  0  0  0  0  0  0  0  0  0
   13.9880    1.7800   22.6220 C   0  0  0  0  0  0  0  0  0  0  0  0
   13.5510    0.5110   23.3730 C   0  0  0  0  0  0  0  0  0  0  0  0
   12.1020    0.1430   23.1080 C   0  0  0  0  0  0  0  0  0  0  0  0
   11.7740   -0.7850   22.1060 C   0  0  0  0  0  0  0  0  0  0  0  0
   10.4280   -1.0390   21.8080 C   0  0  0  0  0  0  0  0  0  0  0  0
    9.4120   -0.3530   22.4880 C   0  0  0  0  0  0  0  0  0  0  0  0
    8.0800   -0.4340   22.0400 N   0  0  0  0  0  0  0  0  0  0  0  0
    7.6940   -0.1190   20.7650 C   0  0  0  0  0  0  0  0  0  0  0  0
    8.4620    0.0670   19.8400 O   0  0  0  0  0  0  0  0  0  0  0  0
    6.3400    0.0180   20.6400 N   0  0  0  0  0  0  0  0  0  0  0  0
    5.6880    0.5940   19.5250 C   0  0  0  0  0  0  0  0  0  0  0  0
    4.7230    1.5840   19.7430 C   0  0  0  0  0  0  0  0  0  0  0  0
    4.1950    2.2350   18.6210 C   0  0  0  0  0  0  0  0  0  0  0  0
    4.6570    1.8940   17.3410 C   0  0  0  0  0  0  0  0  0  0  0  0
    5.5500    0.9030   17.1190 N   0  0  0  0  0  0  0  0  0  0  0  0
    6.0620    0.2820   18.2000 C   0  0  0  0  0  0  0  0  0  0  0  0
    9.7330    0.5220   23.5330 C   0  0  0  0  0  0  0  0  0  0  0  0
   11.0770    0.7630   23.8470 C   0  0  0  0  0  0  0  0  0  0  0  0
  1  2  1  0
  2  3  2  0
  2  4  1  0
  4  5  1  0
  5  6  1  0
  6  7  1  0
  7 22  2  0
  7  8  1  0
  8  9  2  0
  9 10  1  0
 10 11  1  0
 10 21  2  0
 11 12  1  0
 12 13  2  0
 12 14  1  0
 14 15  1  0
 15 16  2  0
 15 20  1  0
 16 17  1  0
 17 18  2  0
 18 19  1  0
 19 20  2  0
 21 22  1  0
M  END
>  <original SMILES>  (122) 
CC(=O)OCCc1ccc(NC(=O)Nc2cccnc2)cc1

>  <AutoDock Predicted Affinity>  (122) 
-6.164603

>  <ref_pdb>  (122) 
x0434_0

>  <ref_mols>  (122) 
x0434_0

>  <creator>  (122) 
Will Poole

>  <energy minimised>  (122) 
True

$$$$
WPC0396_minimised.pdb
     RDKit          3D

 21 22  0  0  0  0  0  0  0  0999 V2000
   13.0220    4.6500   22.5860 C   0  0  0  0  0  0  0  0  0  0  0  0
   12.5310    3.4810   23.4190 C   0  0  0  0  0  0  0  0  0  0  0  0
   11.8270    3.6260   24.4020 O   0  0  0  0  0  0  0  0  0  0  0  0
   13.2870    2.3760   23.1710 O   0  0  0  0  0  0  0  0  0  0  0  0
   13.0660    1.1320   23.8530 C   0  0  0  0  0  0  0  0  0  0  0  0
   11.7390    0.5410   23.4360 C   0  0  0  0  0  0  0  0  0  0  0  0
   11.6560   -0.2360   22.2710 C   0  0  0  0  0  0  0  0  0  0  0  0
   10.4060   -0.6850   21.8270 C   0  0  0  0  0  0  0  0  0  0  0  0
    9.2410   -0.3330   22.5260 C   0  0  0  0  0  0  0  0  0  0  0  0
    7.9690   -0.5510   21.9630 N   0  0  0  0  0  0  0  0  0  0  0  0
    7.6320   -0.1960   20.6860 C   0  0  0  0  0  0  0  0  0  0  0  0
    8.4270    0.0660   19.8020 O   0  0  0  0  0  0  0  0  0  0  0  0
    6.2820   -0.0960   20.5130 N   0  0  0  0  0  0  0  0  0  0  0  0
    5.6650    0.5370   19.4110 C   0  0  0  0  0  0  0  0  0  0  0  0
    4.7080    1.5320   19.6450 C   0  0  0  0  0  0  0  0  0  0  0  0
    4.2230    2.2390   18.5390 C   0  0  0  0  0  0  0  0  0  0  0  0
    4.7200    1.9520   17.2600 C   0  0  0  0  0  0  0  0  0  0  0  0
    5.6110    0.9630   17.0210 N   0  0  0  0  0  0  0  0  0  0  0  0
    6.0770    0.2820   18.0860 C   0  0  0  0  0  0  0  0  0  0  0  0
    9.3320    0.3770   23.7300 C   0  0  0  0  0  0  0  0  0  0  0  0
   10.5830    0.8070   24.1930 C   0  0  0  0  0  0  0  0  0  0  0  0
  1  2  1  0
  2  3  2  0
  2  4  1  0
  4  5  1  0
  5  6  1  0
  6 21  2  0
  6  7  1  0
  7  8  2  0
  8  9  1  0
  9 10  1  0
  9 20  2  0
 10 11  1  0
 11 12  2  0
 11 13  1  0
 13 14  1  0
 14 15  2  0
 14 19  1  0
 15 16  1  0
 16 17  2  0
 17 18  1  0
 18 19  2  0
 20 21  1  0
M  END
>  <original SMILES>  (123) 
CC(=O)OCc1ccc(NC(=O)Nc2cccnc2)cc1

>  <AutoDock Predicted Affinity>  (123) 
-5.7017

>  <ref_pdb>  (123) 
x0434_0

>  <ref_mols>  (123) 
x0434_0

>  <creator>  (123) 
Will Poole

>  <energy minimised>  (123) 
True

$$$$
WPC0880_minimised.pdb
     RDKit          3D

 21 22  0  0  1  0  0  0  0  0999 V2000
   13.8880   -2.0110   23.6560 C   0  0  0  0  0  0  0  0  0  0  0  0
   13.1670   -0.6510   23.7990 C   0  0  1  0  0  0  0  0  0  0  0  0
   13.7960    0.4070   22.8900 C   0  0  0  0  0  0  0  0  0  0  0  0
   14.2370    0.1860   21.7820 O   0  0  0  0  0  0  0  0  0  0  0  0
   13.5750    1.6700   23.2530 O   0  0  0  0  0  0  0  0  0  0  0  0
   11.6860   -0.7480   23.4600 C   0  0  0  0  0  0  0  0  0  0  0  0
   11.2940   -1.2980   22.2290 C   0  0  0  0  0  0  0  0  0  0  0  0
    9.9570   -1.2370   21.8290 C   0  0  0  0  0  0  0  0  0  0  0  0
    9.0070   -0.5940   22.6340 C   0  0  0  0  0  0  0  0  0  0  0  0
    7.7100   -0.3630   22.1330 N   0  0  0  0  0  0  0  0  0  0  0  0
    7.4330    0.1160   20.8810 C   0  0  0  0  0  0  0  0  0  0  0  0
    8.2650    0.3480   20.0230 O   0  0  0  0  0  0  0  0  0  0  0  0
    6.0960    0.3050   20.6790 N   0  0  0  0  0  0  0  0  0  0  0  0
    5.5110    0.8520   19.5140 C   0  0  0  0  0  0  0  0  0  0  0  0
    4.5160    1.8270   19.6450 C   0  0  0  0  0  0  0  0  0  0  0  0
    4.0410    2.4280   18.4740 C   0  0  0  0  0  0  0  0  0  0  0  0
    4.5800    2.0550   17.2350 C   0  0  0  0  0  0  0  0  0  0  0  0
    5.5000    1.0740   17.0930 N   0  0  0  0  0  0  0  0  0  0  0  0
    5.9620    0.5010   18.2220 C   0  0  0  0  0  0  0  0  0  0  0  0
    9.3780   -0.0990   23.8920 C   0  0  0  0  0  0  0  0  0  0  0  0
   10.7160   -0.1800   24.3090 C   0  0  0  0  0  0  0  0  0  0  0  0
  2  1  1  6
  2  3  1  0
  2  6  1  0
  3  4  2  0
  3  5  1  0
  6 21  2  0
  6  7  1  0
  7  8  2  0
  8  9  1  0
  9 10  1  0
  9 20  2  0
 10 11  1  0
 11 12  2  0
 11 13  1  0
 13 14  1  0
 14 15  2  0
 14 19  1  0
 15 16  1  0
 16 17  2  0
 17 18  1  0
 18 19  2  0
 20 21  1  0
M  END
>  <original SMILES>  (124) 
CC(C(=O)O)c1ccc(NC(=O)Nc2cccnc2)cc1

>  <AutoDock Predicted Affinity>  (124) 
-6.066407

>  <ref_pdb>  (124) 
x0434_0

>  <ref_mols>  (124) 
x0434_0

>  <creator>  (124) 
Will Poole

>  <energy minimised>  (124) 
True

$$$$
WPC0453_minimised.pdb
     RDKit          3D

 21 22  0  0  1  0  0  0  0  0999 V2000
   13.6850   -1.8520   23.4470 C   0  0  0  0  0  0  0  0  0  0  0  0
   12.7760   -0.6760   23.8960 C   0  0  1  0  0  0  0  0  0  0  0  0
   13.2430    0.7140   23.4360 C   0  0  0  0  0  0  0  0  0  0  0  0
   14.3650    0.7850   22.6720 N   0  0  0  0  0  0  0  0  0  0  0  0
   12.6660    1.7440   23.7070 O   0  0  0  0  0  0  0  0  0  0  0  0
   11.3250   -0.8600   23.4790 C   0  0  0  0  0  0  0  0  0  0  0  0
   10.9990   -1.4500   22.2450 C   0  0  0  0  0  0  0  0  0  0  0  0
    9.6780   -1.4410   21.7920 C   0  0  0  0  0  0  0  0  0  0  0  0
    8.6800   -0.8050   22.5420 C   0  0  0  0  0  0  0  0  0  0  0  0
    7.4100   -0.5830   21.9770 N   0  0  0  0  0  0  0  0  0  0  0  0
    7.1940   -0.1080   20.7110 C   0  0  0  0  0  0  0  0  0  0  0  0
    8.0520    0.0370   19.8590 O   0  0  0  0  0  0  0  0  0  0  0  0
    5.8810    0.2020   20.5000 N   0  0  0  0  0  0  0  0  0  0  0  0
    5.3530    0.8290   19.3480 C   0  0  0  0  0  0  0  0  0  0  0  0
    4.3810    1.8240   19.5020 C   0  0  0  0  0  0  0  0  0  0  0  0
    3.9530    2.4950   18.3500 C   0  0  0  0  0  0  0  0  0  0  0  0
    4.5190    2.1720   17.1090 C   0  0  0  0  0  0  0  0  0  0  0  0
    5.4220    1.1790   16.9460 N   0  0  0  0  0  0  0  0  0  0  0  0
    5.8320    0.5340   18.0540 C   0  0  0  0  0  0  0  0  0  0  0  0
    8.9820   -0.2750   23.8040 C   0  0  0  0  0  0  0  0  0  0  0  0
   10.3040   -0.3080   24.2750 C   0  0  0  0  0  0  0  0  0  0  0  0
  2  1  1  6
  2  3  1  0
  2  6  1  0
  3  4  1  0
  3  5  2  0
  6 21  2  0
  6  7  1  0
  7  8  2  0
  8  9  1  0
  9 10  1  0
  9 20  2  0
 10 11  1  0
 11 12  2  0
 11 13  1  0
 13 14  1  0
 14 15  2  0
 14 19  1  0
 15 16  1  0
 16 17  2  0
 17 18  1  0
 18 19  2  0
 20 21  1  0
M  END
>  <original SMILES>  (125) 
CC(C(N)=O)c1ccc(NC(=O)Nc2cccnc2)cc1

>  <AutoDock Predicted Affinity>  (125) 
-5.63406

>  <ref_pdb>  (125) 
x0434_0

>  <ref_mols>  (125) 
x0434_0

>  <creator>  (125) 
Will Poole

>  <energy minimised>  (125) 
True

$$$$
WPC0594_minimised.pdb
     RDKit          3D

 23 24  0  0  0  0  0  0  0  0999 V2000
   12.6530    4.8250   24.1610 C   0  0  0  0  0  0  0  0  0  0  0  0
   12.9600    4.0110   22.8780 C   0  0  0  0  0  0  0  0  0  0  0  0
   11.6710    3.9260   22.0450 C   0  0  0  0  0  0  0  0  0  0  0  0
   14.1030    4.6680   22.0530 C   0  0  0  0  0  0  0  0  0  0  0  0
   14.0670    6.1390   21.9970 N   0  0  0  0  0  0  0  0  0  0  0  0
   13.5700    2.2910   23.2370 S   0  0  0  0  0  0  0  0  0  0  0  0
   12.3980    1.5210   24.4390 C   0  0  0  0  0  0  0  0  0  0  0  0
   11.1600    0.9330   23.8080 C   0  0  0  0  0  0  0  0  0  0  0  0
   11.2600    0.0540   22.7170 C   0  0  0  0  0  0  0  0  0  0  0  0
   10.0970   -0.4450   22.1120 C   0  0  0  0  0  0  0  0  0  0  0  0
    8.8390   -0.0770   22.6140 C   0  0  0  0  0  0  0  0  0  0  0  0
    7.6550   -0.4330   21.9490 N   0  0  0  0  0  0  0  0  0  0  0  0
    7.4020   -0.1420   20.6400 C   0  0  0  0  0  0  0  0  0  0  0  0
    8.2430    0.1140   19.8000 O   0  0  0  0  0  0  0  0  0  0  0  0
    6.0600   -0.0850   20.3980 N   0  0  0  0  0  0  0  0  0  0  0  0
    5.4780    0.5560   19.2870 C   0  0  0  0  0  0  0  0  0  0  0  0
    4.5070    1.5410   19.5080 C   0  0  0  0  0  0  0  0  0  0  0  0
    4.0380    2.2490   18.3950 C   0  0  0  0  0  0  0  0  0  0  0  0
    4.5550    1.9600   17.1250 C   0  0  0  0  0  0  0  0  0  0  0  0
    5.4690    0.9870   16.9020 N   0  0  0  0  0  0  0  0  0  0  0  0
    5.9300    0.3160   17.9740 C   0  0  0  0  0  0  0  0  0  0  0  0
    8.7400    0.7480   23.7420 C   0  0  0  0  0  0  0  0  0  0  0  0
    9.9000    1.2540   24.3410 C   0  0  0  0  0  0  0  0  0  0  0  0
  1  2  1  0
  2  4  1  0
  2  3  1  0
  2  6  1  0
  4  5  1  0
  6  7  1  0
  7  8  1  0
  8 23  2  0
  8  9  1  0
  9 10  2  0
 10 11  1  0
 11 12  1  0
 11 22  2  0
 12 13  1  0
 13 14  2  0
 13 15  1  0
 15 16  1  0
 16 17  2  0
 16 21  1  0
 17 18  1  0
 18 19  2  0
 19 20  1  0
 20 21  2  0
 22 23  1  0
M  END
>  <original SMILES>  (126) 
CC(C)(CN)SCc1ccc(NC(=O)Nc2cccnc2)cc1

>  <AutoDock Predicted Affinity>  (126) 
-5.81562

>  <ref_pdb>  (126) 
x0434_0

>  <ref_mols>  (126) 
x0434_0

>  <creator>  (126) 
Will Poole

>  <energy minimised>  (126) 
True

$$$$
WPC0391_minimised.pdb
     RDKit          3D

 22 23  0  0  0  0  0  0  0  0999 V2000
   11.5500    3.9850   23.6940 C   0  0  0  0  0  0  0  0  0  0  0  0
   12.2930    3.3740   22.4830 C   0  0  0  0  0  0  0  0  0  0  0  0
   13.0380    4.5080   21.7490 C   0  0  0  0  0  0  0  0  0  0  0  0
   11.3450    2.8430   21.5690 O   0  0  0  0  0  0  0  0  0  0  0  0
   13.3030    2.2510   22.8660 C   0  0  0  0  0  0  0  0  0  0  0  0
   12.8360    1.1500   23.8560 C   0  0  0  0  0  0  0  0  0  0  0  0
   11.5600    0.4220   23.4800 C   0  0  0  0  0  0  0  0  0  0  0  0
   11.5220   -0.4070   22.3490 C   0  0  0  0  0  0  0  0  0  0  0  0
   10.2960   -0.9140   21.9010 C   0  0  0  0  0  0  0  0  0  0  0  0
    9.1090   -0.5830   22.5700 C   0  0  0  0  0  0  0  0  0  0  0  0
    7.8530   -0.8130   21.9750 N   0  0  0  0  0  0  0  0  0  0  0  0
    7.5470   -0.4580   20.6870 C   0  0  0  0  0  0  0  0  0  0  0  0
    8.3540   -0.2810   19.7930 O   0  0  0  0  0  0  0  0  0  0  0  0
    6.2070   -0.2510   20.5220 N   0  0  0  0  0  0  0  0  0  0  0  0
    5.6240    0.4300   19.4280 C   0  0  0  0  0  0  0  0  0  0  0  0
    4.6920    1.4450   19.6800 C   0  0  0  0  0  0  0  0  0  0  0  0
    4.2180    2.1790   18.5850 C   0  0  0  0  0  0  0  0  0  0  0  0
    4.6970    1.8930   17.2990 C   0  0  0  0  0  0  0  0  0  0  0  0
    5.5670    0.8900   17.0440 N   0  0  0  0  0  0  0  0  0  0  0  0
    6.0280    0.1880   18.0980 C   0  0  0  0  0  0  0  0  0  0  0  0
    9.1620    0.1310   23.7730 C   0  0  0  0  0  0  0  0  0  0  0  0
   10.3900    0.6200   24.2380 C   0  0  0  0  0  0  0  0  0  0  0  0
  1  2  1  0
  2  3  1  0
  2  4  1  0
  2  5  1  0
  5  6  1  0
  6  7  1  0
  7 22  2  0
  7  8  1  0
  8  9  2  0
  9 10  1  0
 10 11  1  0
 10 21  2  0
 11 12  1  0
 12 13  2  0
 12 14  1  0
 14 15  1  0
 15 16  2  0
 15 20  1  0
 16 17  1  0
 17 18  2  0
 18 19  1  0
 19 20  2  0
 21 22  1  0
M  END
>  <original SMILES>  (127) 
CC(C)(O)CCc1ccc(NC(=O)Nc2cccnc2)cc1

>  <AutoDock Predicted Affinity>  (127) 
-6.34537

>  <ref_pdb>  (127) 
x0434_0

>  <ref_mols>  (127) 
x0434_0

>  <creator>  (127) 
Will Poole

>  <energy minimised>  (127) 
True

$$$$
WPC0996_minimised.pdb
     RDKit          3D

 24 25  0  0  0  0  0  0  0  0999 V2000
   10.4180    4.3830   24.0650 C   0  0  0  0  0  0  0  0  0  0  0  0
   11.5220    5.2480   23.4120 C   0  0  0  0  0  0  0  0  0  0  0  0
   12.2250    6.1690   24.4370 C   0  0  0  0  0  0  0  0  0  0  0  0
   12.5640    4.4330   22.6370 C   0  0  0  0  0  0  0  0  0  0  0  0
   13.2280    4.9040   21.7290 O   0  0  0  0  0  0  0  0  0  0  0  0
   12.8500    3.2520   23.2590 O   0  0  0  0  0  0  0  0  0  0  0  0
   13.7910    2.3540   22.6450 C   0  0  0  0  0  0  0  0  0  0  0  0
   13.6300    0.9530   23.2730 C   0  0  0  0  0  0  0  0  0  0  0  0
   12.2340    0.3990   23.0630 C   0  0  0  0  0  0  0  0  0  0  0  0
   11.9730   -0.4770   21.9980 C   0  0  0  0  0  0  0  0  0  0  0  0
   10.6540   -0.8680   21.7320 C   0  0  0  0  0  0  0  0  0  0  0  0
    9.5940   -0.3640   22.5010 C   0  0  0  0  0  0  0  0  0  0  0  0
    8.2620   -0.5340   22.0730 N   0  0  0  0  0  0  0  0  0  0  0  0
    7.8260   -0.2020   20.8170 C   0  0  0  0  0  0  0  0  0  0  0  0
    8.5610    0.0600   19.8840 O   0  0  0  0  0  0  0  0  0  0  0  0
    6.4640   -0.1340   20.7110 N   0  0  0  0  0  0  0  0  0  0  0  0
    5.7850    0.4440   19.6120 C   0  0  0  0  0  0  0  0  0  0  0  0
    4.8310    1.4410   19.8490 C   0  0  0  0  0  0  0  0  0  0  0  0
    4.2890    2.1010   18.7390 C   0  0  0  0  0  0  0  0  0  0  0  0
    4.7240    1.7620   17.4500 C   0  0  0  0  0  0  0  0  0  0  0  0
    5.6060    0.7660   17.2080 N   0  0  0  0  0  0  0  0  0  0  0  0
    6.1340    0.1370   18.2780 C   0  0  0  0  0  0  0  0  0  0  0  0
    9.8610    0.4390   23.6160 C   0  0  0  0  0  0  0  0  0  0  0  0
   11.1820    0.8100   23.9030 C   0  0  0  0  0  0  0  0  0  0  0  0
  1  2  1  0
  2  3  1  0
  2  4  1  0
  4  5  2  0
  4  6  1  0
  6  7  1  0
  7  8  1  0
  8  9  1  0
  9 24  2  0
  9 10  1  0
 10 11  2  0
 11 12  1  0
 12 13  1  0
 12 23  2  0
 13 14  1  0
 14 15  2  0
 14 16  1  0
 16 17  1  0
 17 18  2  0
 17 22  1  0
 18 19  1  0
 19 20  2  0
 20 21  1  0
 21 22  2  0
 23 24  1  0
M  END
>  <original SMILES>  (128) 
CC(C)C(=O)OCCc1ccc(NC(=O)Nc2cccnc2)cc1

>  <AutoDock Predicted Affinity>  (128) 
-6.4038

>  <ref_pdb>  (128) 
x0434_0

>  <ref_mols>  (128) 
x0434_0

>  <creator>  (128) 
Will Poole

>  <energy minimised>  (128) 
True

$$$$
WPC0918_minimised.pdb
     RDKit          3D

 23 24  0  0  0  0  0  0  0  0999 V2000
   14.2130    5.0040   22.5950 C   0  0  0  0  0  0  0  0  0  0  0  0
   13.5610    3.7390   22.0120 C   0  0  0  0  0  0  0  0  0  0  0  0
   12.3460    4.0980   21.1470 C   0  0  0  0  0  0  0  0  0  0  0  0
   13.1250    2.7750   23.1060 C   0  0  0  0  0  0  0  0  0  0  0  0
   12.3520    3.0780   23.9980 O   0  0  0  0  0  0  0  0  0  0  0  0
   13.7320    1.5660   22.9510 O   0  0  0  0  0  0  0  0  0  0  0  0
   13.3660    0.4640   23.7860 C   0  0  0  0  0  0  0  0  0  0  0  0
   11.9510    0.0280   23.4500 C   0  0  0  0  0  0  0  0  0  0  0  0
   11.7210   -0.8050   22.3430 C   0  0  0  0  0  0  0  0  0  0  0  0
   10.4080   -1.0770   21.9370 C   0  0  0  0  0  0  0  0  0  0  0  0
    9.3250   -0.5130   22.6260 C   0  0  0  0  0  0  0  0  0  0  0  0
    8.0220   -0.5920   22.1010 N   0  0  0  0  0  0  0  0  0  0  0  0
    7.6810   -0.2210   20.8270 C   0  0  0  0  0  0  0  0  0  0  0  0
    8.4740    0.0050   19.9330 O   0  0  0  0  0  0  0  0  0  0  0  0
    6.3320   -0.0850   20.6680 N   0  0  0  0  0  0  0  0  0  0  0  0
    5.7020    0.5110   19.5500 C   0  0  0  0  0  0  0  0  0  0  0  0
    4.7410    1.5060   19.7690 C   0  0  0  0  0  0  0  0  0  0  0  0
    4.2140    2.1570   18.6470 C   0  0  0  0  0  0  0  0  0  0  0  0
    4.6640    1.8040   17.3660 C   0  0  0  0  0  0  0  0  0  0  0  0
    5.5610    0.8170   17.1440 N   0  0  0  0  0  0  0  0  0  0  0  0
    6.0820    0.2030   18.2260 C   0  0  0  0  0  0  0  0  0  0  0  0
    9.5490    0.2390   23.7860 C   0  0  0  0  0  0  0  0  0  0  0  0
   10.8610    0.5020   24.2040 C   0  0  0  0  0  0  0  0  0  0  0  0
  1  2  1  0
  2  3  1  0
  2  4  1  0
  4  5  2  0
  4  6  1  0
  6  7  1  0
  7  8  1  0
  8 23  2  0
  8  9  1  0
  9 10  2  0
 10 11  1  0
 11 12  1  0
 11 22  2  0
 12 13  1  0
 13 14  2  0
 13 15  1  0
 15 16  1  0
 16 17  2  0
 16 21  1  0
 17 18  1  0
 18 19  2  0
 19 20  1  0
 20 21  2  0
 22 23  1  0
M  END
>  <original SMILES>  (129) 
CC(C)C(=O)OCc1ccc(NC(=O)Nc2cccnc2)cc1

>  <AutoDock Predicted Affinity>  (129) 
-5.9317

>  <ref_pdb>  (129) 
x0434_0

>  <ref_mols>  (129) 
x0434_0

>  <creator>  (129) 
Will Poole

>  <energy minimised>  (129) 
True

$$$$
WPC0459_minimised.pdb
     RDKit          3D

 22 23  0  0  0  0  0  0  0  0999 V2000
   14.0700    5.5610   21.5510 C   0  0  0  0  0  0  0  0  0  0  0  0
   13.1430    5.0530   22.6710 C   0  0  0  0  0  0  0  0  0  0  0  0
   11.7270    4.7110   22.1720 C   0  0  0  0  0  0  0  0  0  0  0  0
   13.7500    3.8460   23.4010 C   0  0  0  0  0  0  0  0  0  0  0  0
   14.1000    2.6320   22.5190 C   0  0  0  0  0  0  0  0  0  0  0  0
   14.1250    1.0550   23.4700 S   0  0  0  0  0  0  0  0  0  0  0  0
   12.4400    0.5340   23.2730 C   0  0  0  0  0  0  0  0  0  0  0  0
   12.1350   -0.3920   22.2660 C   0  0  0  0  0  0  0  0  0  0  0  0
   10.7970   -0.6850   21.9710 C   0  0  0  0  0  0  0  0  0  0  0  0
    9.7660   -0.0520   22.6820 C   0  0  0  0  0  0  0  0  0  0  0  0
    8.4290   -0.1950   22.2580 N   0  0  0  0  0  0  0  0  0  0  0  0
    7.9900    0.1020   20.9950 C   0  0  0  0  0  0  0  0  0  0  0  0
    8.7200    0.4090   20.0730 O   0  0  0  0  0  0  0  0  0  0  0  0
    6.6290    0.0530   20.8650 N   0  0  0  0  0  0  0  0  0  0  0  0
    5.9130    0.5130   19.7340 C   0  0  0  0  0  0  0  0  0  0  0  0
    4.8930    1.4540   19.9190 C   0  0  0  0  0  0  0  0  0  0  0  0
    4.2930    1.9950   18.7770 C   0  0  0  0  0  0  0  0  0  0  0  0
    4.7240    1.5840   17.5070 C   0  0  0  0  0  0  0  0  0  0  0  0
    5.6700    0.6370   17.3170 N   0  0  0  0  0  0  0  0  0  0  0  0
    6.2680    0.1370   18.4190 C   0  0  0  0  0  0  0  0  0  0  0  0
   10.0720    0.8150   23.7420 C   0  0  0  0  0  0  0  0  0  0  0  0
   11.4120    1.1080   24.0390 C   0  0  0  0  0  0  0  0  0  0  0  0
  1  2  1  0
  2  3  1  0
  2  4  1  0
  4  5  1  0
  5  6  1  0
  6  7  1  0
  7 22  2  0
  7  8  1  0
  8  9  2  0
  9 10  1  0
 10 11  1  0
 10 21  2  0
 11 12  1  0
 12 13  2  0
 12 14  1  0
 14 15  1  0
 15 16  2  0
 15 20  1  0
 16 17  1  0
 17 18  2  0
 18 19  1  0
 19 20  2  0
 21 22  1  0
M  END
>  <original SMILES>  (130) 
CC(C)CCSc1ccc(NC(=O)Nc2cccnc2)cc1

>  <AutoDock Predicted Affinity>  (130) 
-5.55589

>  <ref_pdb>  (130) 
x0434_0

>  <ref_mols>  (130) 
x0434_0

>  <creator>  (130) 
Will Poole

>  <energy minimised>  (130) 
True

$$$$
WPC1055_minimised.pdb
     RDKit          3D

 24 25  0  0  0  0  0  0  0  0999 V2000
   14.1120    6.1670   21.9470 C   0  0  0  0  0  0  0  0  0  0  0  0
   13.2050    5.0260   22.4650 C   0  0  0  0  0  0  0  0  0  0  0  0
   12.6340    5.3340   23.8700 C   0  0  0  0  0  0  0  0  0  0  0  0
   14.0280    3.7240   22.4270 C   0  0  0  0  0  0  0  0  0  0  0  0
   13.3250    2.6390   23.0510 O   0  0  0  0  0  0  0  0  0  0  0  0
   13.9790    1.4460   23.0440 C   0  0  0  0  0  0  0  0  0  0  0  0
   15.0780    1.2690   22.5560 O   0  0  0  0  0  0  0  0  0  0  0  0
   13.2320    0.3190   23.7250 C   0  0  0  0  0  0  0  0  0  0  0  0
   11.7720    0.1770   23.3360 C   0  0  0  0  0  0  0  0  0  0  0  0
   11.3890   -0.8090   22.4100 C   0  0  0  0  0  0  0  0  0  0  0  0
   10.0520   -0.9090   22.0060 C   0  0  0  0  0  0  0  0  0  0  0  0
    9.0910   -0.0410   22.5460 C   0  0  0  0  0  0  0  0  0  0  0  0
    7.7740   -0.0490   22.0520 N   0  0  0  0  0  0  0  0  0  0  0  0
    7.4500    0.1920   20.7470 C   0  0  0  0  0  0  0  0  0  0  0  0
    8.2580    0.2790   19.8440 O   0  0  0  0  0  0  0  0  0  0  0  0
    6.1090    0.3690   20.5640 N   0  0  0  0  0  0  0  0  0  0  0  0
    5.5060    0.8950   19.3990 C   0  0  0  0  0  0  0  0  0  0  0  0
    4.5270    1.8850   19.5400 C   0  0  0  0  0  0  0  0  0  0  0  0
    4.0400    2.4870   18.3750 C   0  0  0  0  0  0  0  0  0  0  0  0
    4.5540    2.1020   17.1300 C   0  0  0  0  0  0  0  0  0  0  0  0
    5.4590    1.1070   16.9790 N   0  0  0  0  0  0  0  0  0  0  0  0
    5.9320    0.5320   18.1020 C   0  0  0  0  0  0  0  0  0  0  0  0
    9.4580    0.9050   23.5130 C   0  0  0  0  0  0  0  0  0  0  0  0
   10.7990    1.0150   23.9090 C   0  0  0  0  0  0  0  0  0  0  0  0
  1  2  1  0
  2  3  1  0
  2  4  1  0
  4  5  1  0
  5  6  1  0
  6  7  2  0
  6  8  1  0
  8  9  1  0
  9 24  2  0
  9 10  1  0
 10 11  2  0
 11 12  1  0
 12 13  1  0
 12 23  2  0
 13 14  1  0
 14 15  2  0
 14 16  1  0
 16 17  1  0
 17 18  2  0
 17 22  1  0
 18 19  1  0
 19 20  2  0
 20 21  1  0
 21 22  2  0
 23 24  1  0
M  END
>  <original SMILES>  (131) 
CC(C)COC(=O)Cc1ccc(NC(=O)Nc2cccnc2)cc1

>  <AutoDock Predicted Affinity>  (131) 
-5.88557

>  <ref_pdb>  (131) 
x0434_0

>  <ref_mols>  (131) 
x0434_0

>  <creator>  (131) 
Will Poole

>  <energy minimised>  (131) 
True

$$$$
WPC0641_minimised.pdb
     RDKit          3D

 21 22  0  0  0  0  0  0  0  0999 V2000
   13.9270    4.7420   22.9670 C   0  0  0  0  0  0  0  0  0  0  0  0
   13.1910    3.3900   22.8840 C   0  0  0  0  0  0  0  0  0  0  0  0
   11.9520    3.5270   21.9830 C   0  0  0  0  0  0  0  0  0  0  0  0
   14.1420    2.2570   22.4180 C   0  0  0  0  0  0  0  0  0  0  0  0
   13.9790    0.7340   23.4410 S   0  0  0  0  0  0  0  0  0  0  0  0
   12.2910    0.2680   23.1750 C   0  0  0  0  0  0  0  0  0  0  0  0
   11.9750   -0.5350   22.0730 C   0  0  0  0  0  0  0  0  0  0  0  0
   10.6320   -0.8060   21.7790 C   0  0  0  0  0  0  0  0  0  0  0  0
    9.6080   -0.2580   22.5670 C   0  0  0  0  0  0  0  0  0  0  0  0
    8.2660   -0.3500   22.1430 N   0  0  0  0  0  0  0  0  0  0  0  0
    7.8340   -0.0050   20.8890 C   0  0  0  0  0  0  0  0  0  0  0  0
    8.5730    0.2930   19.9700 O   0  0  0  0  0  0  0  0  0  0  0  0
    6.4720    0.0090   20.7650 N   0  0  0  0  0  0  0  0  0  0  0  0
    5.7820    0.5290   19.6450 C   0  0  0  0  0  0  0  0  0  0  0  0
    4.7960    1.5020   19.8490 C   0  0  0  0  0  0  0  0  0  0  0  0
    4.2400    2.1090   18.7170 C   0  0  0  0  0  0  0  0  0  0  0  0
    4.6880    1.7390   17.4410 C   0  0  0  0  0  0  0  0  0  0  0  0
    5.5980    0.7610   17.2320 N   0  0  0  0  0  0  0  0  0  0  0  0
    6.1440    0.1870   18.3230 C   0  0  0  0  0  0  0  0  0  0  0  0
    9.9280    0.4850   23.7130 C   0  0  0  0  0  0  0  0  0  0  0  0
   11.2730    0.7410   24.0210 C   0  0  0  0  0  0  0  0  0  0  0  0
  1  2  1  0
  2  3  1  0
  2  4  1  0
  4  5  1  0
  5  6  1  0
  6 21  2  0
  6  7  1  0
  7  8  2  0
  8  9  1  0
  9 10  1  0
  9 20  2  0
 10 11  1  0
 11 12  2  0
 11 13  1  0
 13 14  1  0
 14 15  2  0
 14 19  1  0
 15 16  1  0
 16 17  2  0
 17 18  1  0
 18 19  2  0
 20 21  1  0
M  END
>  <original SMILES>  (132) 
CC(C)CSc1ccc(NC(=O)Nc2cccnc2)cc1

>  <AutoDock Predicted Affinity>  (132) 
-5.35388

>  <ref_pdb>  (132) 
x0434_0

>  <ref_mols>  (132) 
x0434_0

>  <creator>  (132) 
Will Poole

>  <energy minimised>  (132) 
True

$$$$
WPC0545_minimised.pdb
     RDKit          3D

 24 25  0  0  0  0  0  0  0  0999 V2000
    9.9120    4.3860   23.0500 C   0  0  0  0  0  0  0  0  0  0  0  0
   11.4120    4.7330   23.1690 C   0  0  0  0  0  0  0  0  0  0  0  0
   11.6190    5.6280   24.4080 C   0  0  0  0  0  0  0  0  0  0  0  0
   12.1860    3.4870   23.2330 N   0  0  0  0  0  0  0  0  0  0  0  0
   13.5420    3.3910   23.0180 C   0  0  0  0  0  0  0  0  0  0  0  0
   14.2980    4.3290   23.1920 O   0  0  0  0  0  0  0  0  0  0  0  0
   14.0420    2.0310   22.5330 C   0  0  0  0  0  0  0  0  0  0  0  0
   13.6570    0.8140   23.4110 C   0  0  0  0  0  0  0  0  0  0  0  0
   12.2280    0.3650   23.1810 C   0  0  0  0  0  0  0  0  0  0  0  0
   11.9280   -0.4010   22.0460 C   0  0  0  0  0  0  0  0  0  0  0  0
   10.5950   -0.7010   21.7460 C   0  0  0  0  0  0  0  0  0  0  0  0
    9.5580   -0.2130   22.5540 C   0  0  0  0  0  0  0  0  0  0  0  0
    8.2230   -0.2950   22.1110 N   0  0  0  0  0  0  0  0  0  0  0  0
    7.8150    0.0720   20.8570 C   0  0  0  0  0  0  0  0  0  0  0  0
    8.5690    0.3670   19.9500 O   0  0  0  0  0  0  0  0  0  0  0  0
    6.4570    0.1110   20.7170 N   0  0  0  0  0  0  0  0  0  0  0  0
    5.7920    0.6470   19.5900 C   0  0  0  0  0  0  0  0  0  0  0  0
    4.8110    1.6270   19.7820 C   0  0  0  0  0  0  0  0  0  0  0  0
    4.2850    2.2500   18.6430 C   0  0  0  0  0  0  0  0  0  0  0  0
    4.7620    1.8940   17.3740 C   0  0  0  0  0  0  0  0  0  0  0  0
    5.6670    0.9090   17.1750 N   0  0  0  0  0  0  0  0  0  0  0  0
    6.1790    0.3160   18.2720 C   0  0  0  0  0  0  0  0  0  0  0  0
    9.8600    0.4700   23.7390 C   0  0  0  0  0  0  0  0  0  0  0  0
   11.1960    0.7450   24.0620 C   0  0  0  0  0  0  0  0  0  0  0  0
  1  2  1  0
  2  3  1  0
  2  4  1  0
  4  5  1  0
  5  6  2  0
  5  7  1  0
  7  8  1  0
  8  9  1  0
  9 24  2  0
  9 10  1  0
 10 11  2  0
 11 12  1  0
 12 13  1  0
 12 23  2  0
 13 14  1  0
 14 15  2  0
 14 16  1  0
 16 17  1  0
 17 18  2  0
 17 22  1  0
 18 19  1  0
 19 20  2  0
 20 21  1  0
 21 22  2  0
 23 24  1  0
M  END
>  <original SMILES>  (133) 
CC(C)NC(=O)CCc1ccc(NC(=O)Nc2cccnc2)cc1

>  <AutoDock Predicted Affinity>  (133) 
-6.38709

>  <ref_pdb>  (133) 
x0434_0

>  <ref_mols>  (133) 
x0434_0

>  <creator>  (133) 
Will Poole

>  <energy minimised>  (133) 
True

$$$$
WPC0695_minimised.pdb
     RDKit          3D

 23 24  0  0  0  0  0  0  0  0999 V2000
   12.7160    5.2130   23.4900 C   0  0  0  0  0  0  0  0  0  0  0  0
   13.6080    4.1760   22.7830 C   0  0  0  0  0  0  0  0  0  0  0  0
   13.6570    4.4590   21.2720 C   0  0  0  0  0  0  0  0  0  0  0  0
   13.1050    2.8250   23.0490 N   0  0  0  0  0  0  0  0  0  0  0  0
   13.9030    1.7040   23.0470 C   0  0  0  0  0  0  0  0  0  0  0  0
   15.0260    1.7100   22.5930 O   0  0  0  0  0  0  0  0  0  0  0  0
   13.3300    0.4520   23.6950 C   0  0  0  0  0  0  0  0  0  0  0  0
   11.8660    0.1880   23.3860 C   0  0  0  0  0  0  0  0  0  0  0  0
   11.5280   -0.7410   22.3880 C   0  0  0  0  0  0  0  0  0  0  0  0
   10.1910   -0.9040   22.0080 C   0  0  0  0  0  0  0  0  0  0  0  0
    9.1870   -0.1580   22.6410 C   0  0  0  0  0  0  0  0  0  0  0  0
    7.8710   -0.1800   22.1440 N   0  0  0  0  0  0  0  0  0  0  0  0
    7.5430    0.1320   20.8530 C   0  0  0  0  0  0  0  0  0  0  0  0
    8.3510    0.3130   19.9630 O   0  0  0  0  0  0  0  0  0  0  0  0
    6.1970    0.2610   20.6660 N   0  0  0  0  0  0  0  0  0  0  0  0
    5.5880    0.7930   19.5070 C   0  0  0  0  0  0  0  0  0  0  0  0
    4.6090    1.7820   19.6560 C   0  0  0  0  0  0  0  0  0  0  0  0
    4.1190    2.3890   18.4940 C   0  0  0  0  0  0  0  0  0  0  0  0
    4.6240    2.0030   17.2440 C   0  0  0  0  0  0  0  0  0  0  0  0
    5.5290    1.0090   17.0880 N   0  0  0  0  0  0  0  0  0  0  0  0
    6.0100    0.4350   18.2080 C   0  0  0  0  0  0  0  0  0  0  0  0
    9.5090    0.6960   23.7050 C   0  0  0  0  0  0  0  0  0  0  0  0
   10.8480    0.8660   24.0820 C   0  0  0  0  0  0  0  0  0  0  0  0
  1  2  1  0
  2  3  1  0
  2  4  1  0
  4  5  1  0
  5  6  2  0
  5  7  1  0
  7  8  1  0
  8 23  2  0
  8  9  1  0
  9 10  2  0
 10 11  1  0
 11 12  1  0
 11 22  2  0
 12 13  1  0
 13 14  2  0
 13 15  1  0
 15 16  1  0
 16 17  2  0
 16 21  1  0
 17 18  1  0
 18 19  2  0
 19 20  1  0
 20 21  2  0
 22 23  1  0
M  END
>  <original SMILES>  (134) 
CC(C)NC(=O)Cc1ccc(NC(=O)Nc2cccnc2)cc1

>  <AutoDock Predicted Affinity>  (134) 
-6.605185

>  <ref_pdb>  (134) 
x0434_0

>  <ref_mols>  (134) 
x0434_0

>  <creator>  (134) 
Will Poole

>  <energy minimised>  (134) 
True

$$$$
WPC0772_minimised.pdb
     RDKit          3D

 24 25  0  0  0  0  0  0  0  0999 V2000
   12.2360    6.0970   24.8660 C   0  0  0  0  0  0  0  0  0  0  0  0
   11.8580    5.1430   23.7140 C   0  0  0  0  0  0  0  0  0  0  0  0
   10.4260    4.5850   23.8400 C   0  0  0  0  0  0  0  0  0  0  0  0
   12.7890    4.0370   23.6900 O   0  0  0  0  0  0  0  0  0  0  0  0
   13.0690    3.4700   22.4740 C   0  0  0  0  0  0  0  0  0  0  0  0
   12.8070    3.9990   21.4100 O   0  0  0  0  0  0  0  0  0  0  0  0
   14.0680    2.3180   22.5680 C   0  0  0  0  0  0  0  0  0  0  0  0
   13.6350    1.1130   23.4320 C   0  0  0  0  0  0  0  0  0  0  0  0
   12.2380    0.6280   23.1210 C   0  0  0  0  0  0  0  0  0  0  0  0
   12.0150   -0.2600   22.0580 C   0  0  0  0  0  0  0  0  0  0  0  0
   10.7060   -0.6530   21.7500 C   0  0  0  0  0  0  0  0  0  0  0  0
    9.6220   -0.1410   22.4780 C   0  0  0  0  0  0  0  0  0  0  0  0
    8.2990   -0.3670   22.0490 N   0  0  0  0  0  0  0  0  0  0  0  0
    7.8590   -0.1220   20.7770 C   0  0  0  0  0  0  0  0  0  0  0  0
    8.5880    0.0930   19.8280 O   0  0  0  0  0  0  0  0  0  0  0  0
    6.4970   -0.0810   20.6800 N   0  0  0  0  0  0  0  0  0  0  0  0
    5.7990    0.4630   19.5780 C   0  0  0  0  0  0  0  0  0  0  0  0
    4.8370    1.4520   19.8120 C   0  0  0  0  0  0  0  0  0  0  0  0
    4.2720    2.0860   18.7000 C   0  0  0  0  0  0  0  0  0  0  0  0
    4.6970    1.7340   17.4110 C   0  0  0  0  0  0  0  0  0  0  0  0
    5.5880    0.7460   17.1730 N   0  0  0  0  0  0  0  0  0  0  0  0
    6.1380    0.1400   18.2450 C   0  0  0  0  0  0  0  0  0  0  0  0
    9.8490    0.7010   23.5750 C   0  0  0  0  0  0  0  0  0  0  0  0
   11.1580    1.0790   23.9000 C   0  0  0  0  0  0  0  0  0  0  0  0
  1  2  1  0
  2  3  1  0
  2  4  1  0
  4  5  1  0
  5  6  2  0
  5  7  1  0
  7  8  1  0
  8  9  1  0
  9 24  2  0
  9 10  1  0
 10 11  2  0
 11 12  1  0
 12 13  1  0
 12 23  2  0
 13 14  1  0
 14 15  2  0
 14 16  1  0
 16 17  1  0
 17 18  2  0
 17 22  1  0
 18 19  1  0
 19 20  2  0
 20 21  1  0
 21 22  2  0
 23 24  1  0
M  END
>  <original SMILES>  (135) 
CC(C)OC(=O)CCc1ccc(NC(=O)Nc2cccnc2)cc1

>  <AutoDock Predicted Affinity>  (135) 
-6.16353

>  <ref_pdb>  (135) 
x0434_0

>  <ref_mols>  (135) 
x0434_0

>  <creator>  (135) 
Will Poole

>  <energy minimised>  (135) 
True

$$$$
WPC0980_minimised.pdb
     RDKit          3D

 23 24  0  0  0  0  0  0  0  0999 V2000
   13.4860    4.3580   21.3430 C   0  0  0  0  0  0  0  0  0  0  0  0
   13.6840    4.2360   22.8660 C   0  0  0  0  0  0  0  0  0  0  0  0
   12.8380    5.2800   23.6150 C   0  0  0  0  0  0  0  0  0  0  0  0
   13.2470    2.9410   23.3190 O   0  0  0  0  0  0  0  0  0  0  0  0
   13.9680    1.8250   23.0070 C   0  0  0  0  0  0  0  0  0  0  0  0
   15.0200    1.8260   22.3980 O   0  0  0  0  0  0  0  0  0  0  0  0
   13.4160    0.5590   23.6500 C   0  0  0  0  0  0  0  0  0  0  0  0
   11.9610    0.2760   23.3170 C   0  0  0  0  0  0  0  0  0  0  0  0
   11.6290   -0.7270   22.3910 C   0  0  0  0  0  0  0  0  0  0  0  0
   10.2910   -0.9270   22.0240 C   0  0  0  0  0  0  0  0  0  0  0  0
    9.2820   -0.1440   22.6020 C   0  0  0  0  0  0  0  0  0  0  0  0
    7.9580   -0.2310   22.1320 N   0  0  0  0  0  0  0  0  0  0  0  0
    7.5950    0.0270   20.8400 C   0  0  0  0  0  0  0  0  0  0  0  0
    8.3790    0.1820   19.9250 O   0  0  0  0  0  0  0  0  0  0  0  0
    6.2440    0.1440   20.6830 N   0  0  0  0  0  0  0  0  0  0  0  0
    5.6090    0.6820   19.5390 C   0  0  0  0  0  0  0  0  0  0  0  0
    4.6400    1.6770   19.7140 C   0  0  0  0  0  0  0  0  0  0  0  0
    4.1290    2.2930   18.5670 C   0  0  0  0  0  0  0  0  0  0  0  0
    4.6040    1.9120   17.3050 C   0  0  0  0  0  0  0  0  0  0  0  0
    5.5010    0.9150   17.1230 N   0  0  0  0  0  0  0  0  0  0  0  0
    6.0030    0.3300   18.2290 C   0  0  0  0  0  0  0  0  0  0  0  0
    9.6010    0.8060   23.5820 C   0  0  0  0  0  0  0  0  0  0  0  0
   10.9400    1.0160   23.9400 C   0  0  0  0  0  0  0  0  0  0  0  0
  1  2  1  0
  2  3  1  0
  2  4  1  0
  4  5  1  0
  5  6  2  0
  5  7  1  0
  7  8  1  0
  8 23  2  0
  8  9  1  0
  9 10  2  0
 10 11  1  0
 11 12  1  0
 11 22  2  0
 12 13  1  0
 13 14  2  0
 13 15  1  0
 15 16  1  0
 16 17  2  0
 16 21  1  0
 17 18  1  0
 18 19  2  0
 19 20  1  0
 20 21  2  0
 22 23  1  0
M  END
>  <original SMILES>  (136) 
CC(C)OC(=O)Cc1ccc(NC(=O)Nc2cccnc2)cc1

>  <AutoDock Predicted Affinity>  (136) 
-6.309005

>  <ref_pdb>  (136) 
x0434_0

>  <ref_mols>  (136) 
x0434_0

>  <creator>  (136) 
Will Poole

>  <energy minimised>  (136) 
True

$$$$
WPC0835_minimised.pdb
     RDKit          3D

 19 20  0  0  0  0  0  0  0  0999 V2000
   13.8840    0.5460   23.2210 C   0  0  0  0  0  0  0  0  0  0  0  0
   13.1950   -0.6640   23.8760 C   0  0  0  0  0  0  0  0  0  0  0  0
   13.9190   -1.9680   23.4860 C   0  0  0  0  0  0  0  0  0  0  0  0
   11.7250   -0.6770   23.4820 C   0  0  0  0  0  0  0  0  0  0  0  0
   11.3380   -1.1660   22.2230 C   0  0  0  0  0  0  0  0  0  0  0  0
   10.0040   -1.0770   21.8140 C   0  0  0  0  0  0  0  0  0  0  0  0
    9.0510   -0.4590   22.6340 C   0  0  0  0  0  0  0  0  0  0  0  0
    7.7490   -0.2250   22.1430 N   0  0  0  0  0  0  0  0  0  0  0  0
    7.4490    0.2150   20.8810 C   0  0  0  0  0  0  0  0  0  0  0  0
    8.2660    0.4230   20.0030 O   0  0  0  0  0  0  0  0  0  0  0  0
    6.1090    0.3930   20.6910 N   0  0  0  0  0  0  0  0  0  0  0  0
    5.5080    0.9070   19.5190 C   0  0  0  0  0  0  0  0  0  0  0  0
    4.5120    1.8820   19.6380 C   0  0  0  0  0  0  0  0  0  0  0  0
    4.0290    2.4600   18.4590 C   0  0  0  0  0  0  0  0  0  0  0  0
    4.5610    2.0660   17.2240 C   0  0  0  0  0  0  0  0  0  0  0  0
    5.4790    1.0810   17.0940 N   0  0  0  0  0  0  0  0  0  0  0  0
    5.9490    0.5300   18.2300 C   0  0  0  0  0  0  0  0  0  0  0  0
    9.4170   -0.0120   23.9120 C   0  0  0  0  0  0  0  0  0  0  0  0
   10.7500   -0.1290   24.3390 C   0  0  0  0  0  0  0  0  0  0  0  0
  1  2  1  0
  2  3  1  0
  2  4  1  0
  4 19  2  0
  4  5  1  0
  5  6  2  0
  6  7  1  0
  7  8  1  0
  7 18  2  0
  8  9  1  0
  9 10  2  0
  9 11  1  0
 11 12  1  0
 12 13  2  0
 12 17  1  0
 13 14  1  0
 14 15  2  0
 15 16  1  0
 16 17  2  0
 18 19  1  0
M  END
>  <original SMILES>  (137) 
CC(C)c1ccc(NC(=O)Nc2cccnc2)cc1

>  <AutoDock Predicted Affinity>  (137) 
-6.273205

>  <ref_pdb>  (137) 
x0434_0

>  <ref_mols>  (137) 
x0434_0

>  <creator>  (137) 
Will Poole

>  <energy minimised>  (137) 
True

$$$$
WPC0995_minimised.pdb
     RDKit          3D

 22 23  0  0  1  0  0  0  0  0999 V2000
   14.1790   -0.8040   23.9850 C   0  0  0  0  0  0  0  0  0  0  0  0
   13.4130    0.4870   23.6530 C   0  0  1  0  0  0  0  0  0  0  0  0
   14.1380    1.3330   22.5780 C   0  0  0  0  0  0  0  0  0  0  0  0
   13.6760    2.7910   22.5530 C   0  0  0  0  0  0  0  0  0  0  0  0
   12.5400    3.1420   22.3250 O   0  0  0  0  0  0  0  0  0  0  0  0
   14.6030    3.6860   22.9380 O   0  0  0  0  0  0  0  0  0  0  0  0
   11.9750    0.1800   23.2700 C   0  0  0  0  0  0  0  0  0  0  0  0
   11.6870   -0.7160   22.2240 C   0  0  0  0  0  0  0  0  0  0  0  0
   10.3580   -0.9480   21.8480 C   0  0  0  0  0  0  0  0  0  0  0  0
    9.3140   -0.2750   22.4960 C   0  0  0  0  0  0  0  0  0  0  0  0
    7.9960   -0.3660   22.0090 N   0  0  0  0  0  0  0  0  0  0  0  0
    7.6410   -0.1220   20.7110 C   0  0  0  0  0  0  0  0  0  0  0  0
    8.4240   -0.0190   19.7870 O   0  0  0  0  0  0  0  0  0  0  0  0
    6.2940    0.0470   20.5660 N   0  0  0  0  0  0  0  0  0  0  0  0
    5.6620    0.6230   19.4410 C   0  0  0  0  0  0  0  0  0  0  0  0
    4.6890    1.6080   19.6510 C   0  0  0  0  0  0  0  0  0  0  0  0
    4.1740    2.2620   18.5270 C   0  0  0  0  0  0  0  0  0  0  0  0
    4.6580    1.9360   17.2530 C   0  0  0  0  0  0  0  0  0  0  0  0
    5.5590    0.9500   17.0360 N   0  0  0  0  0  0  0  0  0  0  0  0
    6.0570    0.3220   18.1200 C   0  0  0  0  0  0  0  0  0  0  0  0
    9.5910    0.5830   23.5690 C   0  0  0  0  0  0  0  0  0  0  0  0
   10.9190    0.8070   23.9580 C   0  0  0  0  0  0  0  0  0  0  0  0
  2  1  1  6
  2  3  1  0
  2  7  1  0
  3  4  1  0
  4  5  2  0
  4  6  1  0
  7 22  2  0
  7  8  1  0
  8  9  2  0
  9 10  1  0
 10 11  1  0
 10 21  2  0
 11 12  1  0
 12 13  2  0
 12 14  1  0
 14 15  1  0
 15 16  2  0
 15 20  1  0
 16 17  1  0
 17 18  2  0
 18 19  1  0
 19 20  2  0
 21 22  1  0
M  END
>  <original SMILES>  (138) 
CC(CC(=O)O)c1ccc(NC(=O)Nc2cccnc2)cc1

>  <AutoDock Predicted Affinity>  (138) 
-6.75088

>  <ref_pdb>  (138) 
x0434_0

>  <ref_mols>  (138) 
x0434_0

>  <creator>  (138) 
Will Poole

>  <energy minimised>  (138) 
True

$$$$
WPC0904_minimised.pdb
     RDKit          3D

 20 21  0  0  1  0  0  0  0  0999 V2000
   13.9550   -1.9340   23.5440 C   0  0  0  0  0  0  0  0  0  0  0  0
   13.2010   -0.6210   23.8350 C   0  0  1  0  0  0  0  0  0  0  0  0
   13.8500    0.5480   23.0660 C   0  0  0  0  0  0  0  0  0  0  0  0
   13.1730    1.8160   23.3500 N   0  0  0  0  0  0  0  0  0  0  0  0
   11.7250   -0.7170   23.4690 C   0  0  0  0  0  0  0  0  0  0  0  0
   11.3390   -1.2670   22.2350 C   0  0  0  0  0  0  0  0  0  0  0  0
   10.0030   -1.2080   21.8280 C   0  0  0  0  0  0  0  0  0  0  0  0
    9.0490   -0.5640   22.6270 C   0  0  0  0  0  0  0  0  0  0  0  0
    7.7550   -0.3340   22.1190 N   0  0  0  0  0  0  0  0  0  0  0  0
    7.4830    0.1310   20.8600 C   0  0  0  0  0  0  0  0  0  0  0  0
    8.3190    0.3490   20.0020 O   0  0  0  0  0  0  0  0  0  0  0  0
    6.1480    0.3280   20.6540 N   0  0  0  0  0  0  0  0  0  0  0  0
    5.5700    0.8730   19.4860 C   0  0  0  0  0  0  0  0  0  0  0  0
    4.5790    1.8520   19.6130 C   0  0  0  0  0  0  0  0  0  0  0  0
    4.1150    2.4570   18.4400 C   0  0  0  0  0  0  0  0  0  0  0  0
    4.6600    2.0850   17.2040 C   0  0  0  0  0  0  0  0  0  0  0  0
    5.5760    1.0990   17.0660 N   0  0  0  0  0  0  0  0  0  0  0  0
    6.0270    0.5210   18.1970 C   0  0  0  0  0  0  0  0  0  0  0  0
    9.4120   -0.0670   23.8870 C   0  0  0  0  0  0  0  0  0  0  0  0
   10.7480   -0.1510   24.3100 C   0  0  0  0  0  0  0  0  0  0  0  0
  2  1  1  6
  2  3  1  0
  2  5  1  0
  3  4  1  0
  5 20  2  0
  5  6  1  0
  6  7  2  0
  7  8  1  0
  8  9  1  0
  8 19  2  0
  9 10  1  0
 10 11  2  0
 10 12  1  0
 12 13  1  0
 13 14  2  0
 13 18  1  0
 14 15  1  0
 15 16  2  0
 16 17  1  0
 17 18  2  0
 19 20  1  0
M  END
>  <original SMILES>  (139) 
CC(CN)c1ccc(NC(=O)Nc2cccnc2)cc1

>  <AutoDock Predicted Affinity>  (139) 
-5.835843

>  <ref_pdb>  (139) 
x0434_0

>  <ref_mols>  (139) 
x0434_0

>  <creator>  (139) 
Will Poole

>  <energy minimised>  (139) 
True

$$$$
WPC0825_minimised.pdb
     RDKit          3D

 20 21  0  0  1  0  0  0  0  0999 V2000
   13.9690   -1.9100   23.5000 C   0  0  0  0  0  0  0  0  0  0  0  0
   13.1640   -0.6450   23.8570 C   0  0  1  0  0  0  0  0  0  0  0  0
   13.7590    0.5910   23.1530 C   0  0  0  0  0  0  0  0  0  0  0  0
   13.0120    1.7510   23.5060 O   0  0  0  0  0  0  0  0  0  0  0  0
   11.6920   -0.7710   23.4890 C   0  0  0  0  0  0  0  0  0  0  0  0
   11.3200   -1.3020   22.2430 C   0  0  0  0  0  0  0  0  0  0  0  0
    9.9840   -1.2590   21.8340 C   0  0  0  0  0  0  0  0  0  0  0  0
    9.0170   -0.6460   22.6420 C   0  0  0  0  0  0  0  0  0  0  0  0
    7.7250   -0.4180   22.1290 N   0  0  0  0  0  0  0  0  0  0  0  0
    7.4620    0.0750   20.8780 C   0  0  0  0  0  0  0  0  0  0  0  0
    8.3050    0.3220   20.0340 O   0  0  0  0  0  0  0  0  0  0  0  0
    6.1280    0.2630   20.6610 N   0  0  0  0  0  0  0  0  0  0  0  0
    5.5600    0.8290   19.4970 C   0  0  0  0  0  0  0  0  0  0  0  0
    4.5720    1.8110   19.6310 C   0  0  0  0  0  0  0  0  0  0  0  0
    4.1210    2.4360   18.4630 C   0  0  0  0  0  0  0  0  0  0  0  0
    4.6730    2.0780   17.2250 C   0  0  0  0  0  0  0  0  0  0  0  0
    5.5860    1.0900   17.0810 N   0  0  0  0  0  0  0  0  0  0  0  0
    6.0260    0.4940   18.2070 C   0  0  0  0  0  0  0  0  0  0  0  0
    9.3680   -0.1720   23.9140 C   0  0  0  0  0  0  0  0  0  0  0  0
   10.7030   -0.2430   24.3410 C   0  0  0  0  0  0  0  0  0  0  0  0
  2  1  1  6
  2  3  1  0
  2  5  1  0
  3  4  1  0
  5 20  2  0
  5  6  1  0
  6  7  2  0
  7  8  1  0
  8  9  1  0
  8 19  2  0
  9 10  1  0
 10 11  2  0
 10 12  1  0
 12 13  1  0
 13 14  2  0
 13 18  1  0
 14 15  1  0
 15 16  2  0
 16 17  1  0
 17 18  2  0
 19 20  1  0
M  END
>  <original SMILES>  (140) 
CC(CO)c1ccc(NC(=O)Nc2cccnc2)cc1

>  <AutoDock Predicted Affinity>  (140) 
-6.01542

>  <ref_pdb>  (140) 
x0434_0

>  <ref_mols>  (140) 
x0434_0

>  <creator>  (140) 
Will Poole

>  <energy minimised>  (140) 
True

$$$$
WPC1026_minimised.pdb
     RDKit          3D

 24 25  0  0  0  0  0  0  0  0999 V2000
   14.8130    1.7490   22.4000 C   0  0  0  0  0  0  0  0  0  0  0  0
   13.4470    1.8020   23.0530 C   0  0  0  0  0  0  0  0  0  0  0  0
   13.0470    0.4870   23.6810 C   0  0  0  0  0  0  0  0  0  0  0  0
   11.6250    0.0880   23.3450 C   0  0  0  0  0  0  0  0  0  0  0  0
   11.3750   -0.7750   22.2650 C   0  0  0  0  0  0  0  0  0  0  0  0
   10.0560   -1.0180   21.8610 C   0  0  0  0  0  0  0  0  0  0  0  0
    8.9910   -0.3880   22.5230 C   0  0  0  0  0  0  0  0  0  0  0  0
    7.6920   -0.4350   21.9820 N   0  0  0  0  0  0  0  0  0  0  0  0
    7.3970   -0.0930   20.6910 C   0  0  0  0  0  0  0  0  0  0  0  0
    8.2200    0.0520   19.8060 O   0  0  0  0  0  0  0  0  0  0  0  0
    6.0610    0.1170   20.5020 N   0  0  0  0  0  0  0  0  0  0  0  0
    5.4880    0.7290   19.3640 C   0  0  0  0  0  0  0  0  0  0  0  0
    4.5270    1.7300   19.5460 C   0  0  0  0  0  0  0  0  0  0  0  0
    4.0720    2.4080   18.4090 C   0  0  0  0  0  0  0  0  0  0  0  0
    4.6000    2.0840   17.1520 C   0  0  0  0  0  0  0  0  0  0  0  0
    5.4930    1.0860   16.9610 N   0  0  0  0  0  0  0  0  0  0  0  0
    5.9320    0.4360   18.0560 C   0  0  0  0  0  0  0  0  0  0  0  0
    9.2350    0.4140   23.6460 C   0  0  0  0  0  0  0  0  0  0  0  0
   10.5530    0.6490   24.0620 C   0  0  0  0  0  0  0  0  0  0  0  0
   12.6590    2.8240   23.0190 N   0  0  0  0  0  0  0  0  0  0  0  0
   12.9930    3.9620   22.3330 N   0  0  0  0  0  0  0  0  0  0  0  0
   13.2100    5.1860   22.9180 C   0  0  0  0  0  0  0  0  0  0  0  0
   14.0120    5.9740   22.1510 N   0  0  0  0  0  0  0  0  0  0  0  0
   12.7760    5.6500   24.4540 S   0  0  0  0  0  0  0  0  0  0  0  0
  1  2  1  0
  2 20  2  0
  2  3  1  0
  3  4  1  0
  4 19  2  0
  4  5  1  0
  5  6  2  0
  6  7  1  0
  7  8  1  0
  7 18  2  0
  8  9  1  0
  9 10  2  0
  9 11  1  0
 11 12  1  0
 12 13  2  0
 12 17  1  0
 13 14  1  0
 14 15  2  0
 15 16  1  0
 16 17  2  0
 18 19  1  0
 20 21  1  0
 21 22  1  0
 22 23  1  0
 22 24  2  0
M  END
>  <original SMILES>  (141) 
CC(Cc1ccc(NC(=O)Nc2cccnc2)cc1)=NNC(N)=S

>  <AutoDock Predicted Affinity>  (141) 
-5.66969

>  <ref_pdb>  (141) 
x0434_0

>  <ref_mols>  (141) 
x0434_0

>  <creator>  (141) 
Will Poole

>  <energy minimised>  (141) 
True

$$$$
WPC0572_minimised.pdb
     RDKit          3D

 23 24  0  0  1  0  0  0  0  0999 V2000
   14.0830    5.6060   22.1440 C   0  0  0  0  0  0  0  0  0  0  0  0
   13.5950    4.2100   21.7480 C   0  0  2  0  0  0  0  0  0  0  0  0
   12.3920    4.3530   20.9120 N   0  0  0  0  0  0  0  0  0  0  0  0
   13.3810    3.2990   22.9780 C   0  0  0  0  0  0  0  0  0  0  0  0
   12.6510    3.6090   23.9020 O   0  0  0  0  0  0  0  0  0  0  0  0
   14.0100    2.0760   22.9030 N   0  0  0  0  0  0  0  0  0  0  0  0
   13.5870    0.8860   23.6410 C   0  0  0  0  0  0  0  0  0  0  0  0
   12.1890    0.4430   23.2740 C   0  0  0  0  0  0  0  0  0  0  0  0
   11.9750   -0.4250   22.1910 C   0  0  0  0  0  0  0  0  0  0  0  0
   10.6660   -0.7660   21.8230 C   0  0  0  0  0  0  0  0  0  0  0  0
    9.5740   -0.2380   22.5290 C   0  0  0  0  0  0  0  0  0  0  0  0
    8.2600   -0.4360   22.0650 N   0  0  0  0  0  0  0  0  0  0  0  0
    7.8400   -0.1220   20.8020 C   0  0  0  0  0  0  0  0  0  0  0  0
    8.5840    0.1710   19.8860 O   0  0  0  0  0  0  0  0  0  0  0  0
    6.4790   -0.1220   20.6780 N   0  0  0  0  0  0  0  0  0  0  0  0
    5.7830    0.4290   19.5780 C   0  0  0  0  0  0  0  0  0  0  0  0
    4.8000    1.3970   19.8160 C   0  0  0  0  0  0  0  0  0  0  0  0
    4.2320    2.0320   18.7050 C   0  0  0  0  0  0  0  0  0  0  0  0
    4.6690    1.6940   17.4170 C   0  0  0  0  0  0  0  0  0  0  0  0
    5.5820    0.7260   17.1750 N   0  0  0  0  0  0  0  0  0  0  0  0
    6.1380    0.1240   18.2460 C   0  0  0  0  0  0  0  0  0  0  0  0
    9.7870    0.5830   23.6430 C   0  0  0  0  0  0  0  0  0  0  0  0
   11.0940    0.9200   24.0170 C   0  0  0  0  0  0  0  0  0  0  0  0
  2  1  1  1
  2  3  1  0
  2  4  1  0
  4  5  2  0
  4  6  1  0
  6  7  1  0
  7  8  1  0
  8 23  2  0
  8  9  1  0
  9 10  2  0
 10 11  1  0
 11 12  1  0
 11 22  2  0
 12 13  1  0
 13 14  2  0
 13 15  1  0
 15 16  1  0
 16 17  2  0
 16 21  1  0
 17 18  1  0
 18 19  2  0
 19 20  1  0
 20 21  2  0
 22 23  1  0
M  END
>  <original SMILES>  (142) 
CC(N)C(=O)NCc1ccc(NC(=O)Nc2cccnc2)cc1

>  <AutoDock Predicted Affinity>  (142) 
-6.11151

>  <ref_pdb>  (142) 
x0434_0

>  <ref_mols>  (142) 
x0434_0

>  <creator>  (142) 
Will Poole

>  <energy minimised>  (142) 
True

$$$$
WPC0781_minimised.pdb
     RDKit          3D

 23 24  0  0  1  0  0  0  0  0999 V2000
   13.2460    4.6960   21.2970 C   0  0  0  0  0  0  0  0  0  0  0  0
   14.0590    3.8450   22.2760 C   0  0  1  0  0  0  0  0  0  0  0  0
   14.6260    4.7690   23.2770 N   0  0  0  0  0  0  0  0  0  0  0  0
   13.2020    2.7310   22.9150 C   0  0  0  0  0  0  0  0  0  0  0  0
   12.3240    2.9790   23.7280 O   0  0  0  0  0  0  0  0  0  0  0  0
   13.8560    1.5370   22.8240 O   0  0  0  0  0  0  0  0  0  0  0  0
   13.4460    0.4080   23.6030 C   0  0  0  0  0  0  0  0  0  0  0  0
   12.0390   -0.0320   23.2470 C   0  0  0  0  0  0  0  0  0  0  0  0
   11.8210   -0.8570   22.1330 C   0  0  0  0  0  0  0  0  0  0  0  0
   10.5110   -1.1840   21.7570 C   0  0  0  0  0  0  0  0  0  0  0  0
    9.4210   -0.6760   22.4800 C   0  0  0  0  0  0  0  0  0  0  0  0
    8.1090   -0.7970   21.9870 N   0  0  0  0  0  0  0  0  0  0  0  0
    7.7300   -0.4050   20.7330 C   0  0  0  0  0  0  0  0  0  0  0  0
    8.5030   -0.1640   19.8230 O   0  0  0  0  0  0  0  0  0  0  0  0
    6.3770   -0.2660   20.6080 N   0  0  0  0  0  0  0  0  0  0  0  0
    5.7280    0.3680   19.5230 C   0  0  0  0  0  0  0  0  0  0  0  0
    4.7820    1.3650   19.7880 C   0  0  0  0  0  0  0  0  0  0  0  0
    4.2480    2.0630   18.6980 C   0  0  0  0  0  0  0  0  0  0  0  0
    4.6860    1.7610   17.4000 C   0  0  0  0  0  0  0  0  0  0  0  0
    5.5610    0.7660   17.1320 N   0  0  0  0  0  0  0  0  0  0  0  0
    6.0800    0.1010   18.1830 C   0  0  0  0  0  0  0  0  0  0  0  0
    9.6400    0.0760   23.6410 C   0  0  0  0  0  0  0  0  0  0  0  0
   10.9480    0.3880   24.0310 C   0  0  0  0  0  0  0  0  0  0  0  0
  2  1  1  6
  2  3  1  0
  2  4  1  0
  4  5  2  0
  4  6  1  0
  6  7  1  0
  7  8  1  0
  8 23  2  0
  8  9  1  0
  9 10  2  0
 10 11  1  0
 11 12  1  0
 11 22  2  0
 12 13  1  0
 13 14  2  0
 13 15  1  0
 15 16  1  0
 16 17  2  0
 16 21  1  0
 17 18  1  0
 18 19  2  0
 19 20  1  0
 20 21  2  0
 22 23  1  0
M  END
>  <original SMILES>  (143) 
CC(N)C(=O)OCc1ccc(NC(=O)Nc2cccnc2)cc1

>  <AutoDock Predicted Affinity>  (143) 
-5.95614

>  <ref_pdb>  (143) 
x0434_0

>  <ref_mols>  (143) 
x0434_0

>  <creator>  (143) 
Will Poole

>  <energy minimised>  (143) 
True

$$$$
WPC0508_minimised.pdb
     RDKit          3D

 21 22  0  0  1  0  0  0  0  0999 V2000
   14.0420    5.4760   21.8230 C   0  0  0  0  0  0  0  0  0  0  0  0
   13.9910    4.3580   22.8730 C   0  0  1  0  0  0  0  0  0  0  0  0
   12.8520    4.6180   23.7550 N   0  0  0  0  0  0  0  0  0  0  0  0
   13.8630    3.0030   22.1510 C   0  0  0  0  0  0  0  0  0  0  0  0
   13.9770    1.5020   23.2180 S   0  0  0  0  0  0  0  0  0  0  0  0
   12.3430    0.8330   23.0790 C   0  0  0  0  0  0  0  0  0  0  0  0
   12.1130   -0.2580   22.2270 C   0  0  0  0  0  0  0  0  0  0  0  0
   10.7990   -0.6750   21.9720 C   0  0  0  0  0  0  0  0  0  0  0  0
    9.7230   -0.0080   22.5800 C   0  0  0  0  0  0  0  0  0  0  0  0
    8.4030   -0.2650   22.1620 N   0  0  0  0  0  0  0  0  0  0  0  0
    7.9690   -0.0510   20.8820 C   0  0  0  0  0  0  0  0  0  0  0  0
    8.7090    0.1580   19.9390 O   0  0  0  0  0  0  0  0  0  0  0  0
    6.6060   -0.0290   20.7670 N   0  0  0  0  0  0  0  0  0  0  0  0
    5.9080    0.4930   19.6510 C   0  0  0  0  0  0  0  0  0  0  0  0
    4.9300    1.4710   19.8650 C   0  0  0  0  0  0  0  0  0  0  0  0
    4.3610    2.0810   18.7410 C   0  0  0  0  0  0  0  0  0  0  0  0
    4.7930    1.7110   17.4590 C   0  0  0  0  0  0  0  0  0  0  0  0
    5.6940    0.7270   17.2400 N   0  0  0  0  0  0  0  0  0  0  0  0
    6.2530    0.1500   18.3250 C   0  0  0  0  0  0  0  0  0  0  0  0
    9.9610    1.0300   23.4950 C   0  0  0  0  0  0  0  0  0  0  0  0
   11.2750    1.4540   23.7420 C   0  0  0  0  0  0  0  0  0  0  0  0
  2  1  1  6
  2  3  1  0
  2  4  1  0
  4  5  1  0
  5  6  1  0
  6 21  2  0
  6  7  1  0
  7  8  2  0
  8  9  1  0
  9 10  1  0
  9 20  2  0
 10 11  1  0
 11 12  2  0
 11 13  1  0
 13 14  1  0
 14 15  2  0
 14 19  1  0
 15 16  1  0
 16 17  2  0
 17 18  1  0
 18 19  2  0
 20 21  1  0
M  END
>  <original SMILES>  (144) 
CC(N)CSc1ccc(NC(=O)Nc2cccnc2)cc1

>  <AutoDock Predicted Affinity>  (144) 
-5.32196

>  <ref_pdb>  (144) 
x0434_0

>  <ref_mols>  (144) 
x0434_0

>  <creator>  (144) 
Will Poole

>  <energy minimised>  (144) 
True

$$$$
WPC0502_minimised.pdb
     RDKit          3D

 19 20  0  0  1  0  0  0  0  0999 V2000
   13.9610    0.3530   23.1430 C   0  0  0  0  0  0  0  0  0  0  0  0
   13.3150   -0.8410   23.8610 C   0  0  2  0  0  0  0  0  0  0  0  0
   14.0190   -2.0670   23.4830 N   0  0  0  0  0  0  0  0  0  0  0  0
   11.8390   -0.8860   23.4980 C   0  0  0  0  0  0  0  0  0  0  0  0
   11.4300   -1.3810   22.2480 C   0  0  0  0  0  0  0  0  0  0  0  0
   10.0950   -1.2640   21.8460 C   0  0  0  0  0  0  0  0  0  0  0  0
    9.1610   -0.6210   22.6690 C   0  0  0  0  0  0  0  0  0  0  0  0
    7.8620   -0.3540   22.1860 N   0  0  0  0  0  0  0  0  0  0  0  0
    7.5670    0.1190   20.9350 C   0  0  0  0  0  0  0  0  0  0  0  0
    8.3830    0.3370   20.0600 O   0  0  0  0  0  0  0  0  0  0  0  0
    6.2280    0.3170   20.7510 N   0  0  0  0  0  0  0  0  0  0  0  0
    5.6240    0.8400   19.5840 C   0  0  0  0  0  0  0  0  0  0  0  0
    4.6240    1.8110   19.7130 C   0  0  0  0  0  0  0  0  0  0  0  0
    4.1230    2.3850   18.5380 C   0  0  0  0  0  0  0  0  0  0  0  0
    4.6420    1.9910   17.2970 C   0  0  0  0  0  0  0  0  0  0  0  0
    5.5660    1.0130   17.1580 N   0  0  0  0  0  0  0  0  0  0  0  0
    6.0530    0.4660   18.2900 C   0  0  0  0  0  0  0  0  0  0  0  0
    9.5440   -0.1850   23.9460 C   0  0  0  0  0  0  0  0  0  0  0  0
   10.8790   -0.3220   24.3610 C   0  0  0  0  0  0  0  0  0  0  0  0
  2  1  1  6
  2  3  1  0
  2  4  1  0
  4 19  2  0
  4  5  1  0
  5  6  2  0
  6  7  1  0
  7  8  1  0
  7 18  2  0
  8  9  1  0
  9 10  2  0
  9 11  1  0
 11 12  1  0
 12 13  2  0
 12 17  1  0
 13 14  1  0
 14 15  2  0
 15 16  1  0
 16 17  2  0
 18 19  1  0
M  END
>  <original SMILES>  (145) 
CC(N)c1ccc(NC(=O)Nc2cccnc2)cc1

>  <AutoDock Predicted Affinity>  (145) 
-5.88412

>  <ref_pdb>  (145) 
x0434_0

>  <ref_mols>  (145) 
x0434_0

>  <creator>  (145) 
Will Poole

>  <energy minimised>  (145) 
True

$$$$
WPC0729_minimised.pdb
     RDKit          3D

 24 25  0  0  1  0  0  0  0  0999 V2000
   13.3930    5.0900   22.7320 C   0  0  0  0  0  0  0  0  0  0  0  0
   12.2230    4.3690   23.3950 C   0  0  1  0  0  0  0  0  0  0  0  0
   12.2590    3.1200   23.7630 N   0  0  0  0  0  0  0  0  0  0  0  0
   13.2130    2.2530   23.3310 N   0  0  0  0  0  0  0  0  0  0  0  0
   13.1010    0.8530   23.7720 C   0  0  0  0  0  0  0  0  0  0  0  0
   11.7490    0.2710   23.4140 C   0  0  0  0  0  0  0  0  0  0  0  0
   11.5970   -0.4680   22.2310 C   0  0  0  0  0  0  0  0  0  0  0  0
   10.3170   -0.8510   21.8160 C   0  0  0  0  0  0  0  0  0  0  0  0
    9.1880   -0.4650   22.5540 C   0  0  0  0  0  0  0  0  0  0  0  0
    7.8980   -0.5830   22.0000 N   0  0  0  0  0  0  0  0  0  0  0  0
    7.5740   -0.1860   20.7300 C   0  0  0  0  0  0  0  0  0  0  0  0
    8.3800    0.0670   19.8530 O   0  0  0  0  0  0  0  0  0  0  0  0
    6.2280   -0.0460   20.5480 N   0  0  0  0  0  0  0  0  0  0  0  0
    5.6310    0.5870   19.4340 C   0  0  0  0  0  0  0  0  0  0  0  0
    4.6760    1.5880   19.6470 C   0  0  0  0  0  0  0  0  0  0  0  0
    4.2120    2.2920   18.5290 C   0  0  0  0  0  0  0  0  0  0  0  0
    4.7270    1.9950   17.2590 C   0  0  0  0  0  0  0  0  0  0  0  0
    5.6150    0.9990   17.0390 N   0  0  0  0  0  0  0  0  0  0  0  0
    6.0600    0.3220   18.1150 C   0  0  0  0  0  0  0  0  0  0  0  0
    9.3460    0.1840   23.7860 C   0  0  0  0  0  0  0  0  0  0  0  0
   10.6290    0.5390   24.2250 C   0  0  0  0  0  0  0  0  0  0  0  0
   11.0380    5.1530   23.9080 C   0  0  0  0  0  0  0  0  0  0  0  0
   10.9320    6.3670   23.8920 O   0  0  0  0  0  0  0  0  0  0  0  0
   10.1020    4.4010   24.5170 O   0  0  0  0  0  0  0  0  0  0  0  0
  2  1  1  1
  2 22  1  0
  2  3  1  0
  3  4  1  0
  4  5  1  0
  5  6  1  0
  6 21  2  0
  6  7  1  0
  7  8  2  0
  8  9  1  0
  9 10  1  0
  9 20  2  0
 10 11  1  0
 11 12  2  0
 11 13  1  0
 13 14  1  0
 14 15  2  0
 14 19  1  0
 15 16  1  0
 16 17  2  0
 17 18  1  0
 18 19  2  0
 20 21  1  0
 22 23  2  0
 22 24  1  0
M  END
>  <original SMILES>  (146) 
CC(NNCc1ccc(NC(=O)Nc2cccnc2)cc1)C(=O)O

>  <AutoDock Predicted Affinity>  (146) 
-5.95605

>  <ref_pdb>  (146) 
x0434_0

>  <ref_mols>  (146) 
x0434_0

>  <creator>  (146) 
Will Poole

>  <energy minimised>  (146) 
True

$$$$
WPC0633_minimised.pdb
     RDKit          3D

 23 24  0  0  1  0  0  0  0  0999 V2000
   14.0060   -0.9560   23.9070 C   0  0  0  0  0  0  0  0  0  0  0  0
   12.8950    0.1040   23.8680 C   0  0  1  0  0  0  0  0  0  0  0  0
   13.3300    1.1720   22.9640 N   0  0  0  0  0  0  0  0  0  0  0  0
   12.4520    2.4800   22.5490 S   0  0  0  0  0  0  0  0  0  0  0  0
   11.0140    2.6120   23.5730 C   0  0  0  0  0  0  0  0  0  0  0  0
   12.0750    2.0190   21.2360 O   0  0  0  0  0  0  0  0  0  0  0  0
   13.3300    3.5980   22.7820 O   0  0  0  0  0  0  0  0  0  0  0  0
   11.5660   -0.5080   23.4670 C   0  0  0  0  0  0  0  0  0  0  0  0
   11.4170   -1.1070   22.2060 C   0  0  0  0  0  0  0  0  0  0  0  0
   10.1470   -1.4800   21.7580 C   0  0  0  0  0  0  0  0  0  0  0  0
    9.0110   -1.2190   22.5380 C   0  0  0  0  0  0  0  0  0  0  0  0
    7.7100   -1.2630   21.9860 N   0  0  0  0  0  0  0  0  0  0  0  0
    7.3840   -0.9240   20.6950 C   0  0  0  0  0  0  0  0  0  0  0  0
    8.1320   -0.9840   19.7380 O   0  0  0  0  0  0  0  0  0  0  0  0
    6.1050   -0.4520   20.5960 N   0  0  0  0  0  0  0  0  0  0  0  0
    5.5660    0.2800   19.5090 C   0  0  0  0  0  0  0  0  0  0  0  0
    4.6910    1.3390   19.7850 C   0  0  0  0  0  0  0  0  0  0  0  0
    4.2360    2.1100   18.7080 C   0  0  0  0  0  0  0  0  0  0  0  0
    4.6820    1.8220   17.4100 C   0  0  0  0  0  0  0  0  0  0  0  0
    5.4940    0.7790   17.1310 N   0  0  0  0  0  0  0  0  0  0  0  0
    5.9320    0.0360   18.1660 C   0  0  0  0  0  0  0  0  0  0  0  0
    9.1730   -0.7440   23.8490 C   0  0  0  0  0  0  0  0  0  0  0  0
   10.4520   -0.4130   24.3240 C   0  0  0  0  0  0  0  0  0  0  0  0
  2  1  1  6
  2  3  1  0
  2  8  1  0
  3  4  1  0
  4  5  1  0
  4  6  2  0
  4  7  2  0
  8 23  2  0
  8  9  1  0
  9 10  2  0
 10 11  1  0
 11 12  1  0
 11 22  2  0
 12 13  1  0
 13 14  2  0
 13 15  1  0
 15 16  1  0
 16 17  2  0
 16 21  1  0
 17 18  1  0
 18 19  2  0
 19 20  1  0
 20 21  2  0
 22 23  1  0
M  END
>  <original SMILES>  (147) 
CC(NS(C)(=O)=O)c1ccc(NC(=O)Nc2cccnc2)cc1

>  <AutoDock Predicted Affinity>  (147) 
-6.16981

>  <ref_pdb>  (147) 
x0434_0

>  <ref_mols>  (147) 
x0434_0

>  <creator>  (147) 
Will Poole

>  <energy minimised>  (147) 
True

$$$$
WPC0417_minimised.pdb
     RDKit          3D

 23 24  0  0  1  0  0  0  0  0999 V2000
   13.8420    0.3940   21.3900 C   0  0  0  0  0  0  0  0  0  0  0  0
   13.7950    1.1000   22.7610 C   0  0  2  0  0  0  0  0  0  0  0  0
   13.0470    0.2600   23.7300 N   0  0  0  0  0  0  0  0  0  0  0  0
   11.7200   -0.0620   23.4940 C   0  0  0  0  0  0  0  0  0  0  0  0
   11.3980   -1.1830   22.7110 C   0  0  0  0  0  0  0  0  0  0  0  0
   10.0700   -1.4220   22.3310 C   0  0  0  0  0  0  0  0  0  0  0  0
    9.0600   -0.5450   22.7490 C   0  0  0  0  0  0  0  0  0  0  0  0
    7.7580   -0.6490   22.2200 N   0  0  0  0  0  0  0  0  0  0  0  0
    7.4660   -0.5300   20.8880 C   0  0  0  0  0  0  0  0  0  0  0  0
    8.2640   -0.6700   19.9800 O   0  0  0  0  0  0  0  0  0  0  0  0
    6.1610   -0.1710   20.6950 N   0  0  0  0  0  0  0  0  0  0  0  0
    5.6250    0.4570   19.5470 C   0  0  0  0  0  0  0  0  0  0  0  0
    4.6960    1.4880   19.7380 C   0  0  0  0  0  0  0  0  0  0  0  0
    4.2430    2.1780   18.6070 C   0  0  0  0  0  0  0  0  0  0  0  0
    4.7380    1.8330   17.3430 C   0  0  0  0  0  0  0  0  0  0  0  0
    5.6020    0.8120   17.1430 N   0  0  0  0  0  0  0  0  0  0  0  0
    6.0450    0.1520   18.2330 C   0  0  0  0  0  0  0  0  0  0  0  0
    9.3660    0.5300   23.5980 C   0  0  0  0  0  0  0  0  0  0  0  0
   10.6980    0.7690   23.9700 C   0  0  0  0  0  0  0  0  0  0  0  0
   13.2650    2.5570   22.6430 C   0  0  0  0  0  0  0  0  0  0  0  0
   12.1240    2.8620   22.3460 O   0  0  0  0  0  0  0  0  0  0  0  0
   14.1900    3.5580   22.8970 N   0  0  0  0  0  0  0  0  0  0  0  0
   13.8880    4.9380   22.7360 N   0  0  0  0  0  0  0  0  0  0  0  0
  2  1  1  6
  2 20  1  0
  2  3  1  0
  3  4  1  0
  4 19  2  0
  4  5  1  0
  5  6  2  0
  6  7  1  0
  7  8  1  0
  7 18  2  0
  8  9  1  0
  9 10  2  0
  9 11  1  0
 11 12  1  0
 12 13  2  0
 12 17  1  0
 13 14  1  0
 14 15  2  0
 15 16  1  0
 16 17  2  0
 18 19  1  0
 20 22  1  0
 20 21  2  0
 22 23  1  0
M  END
>  <original SMILES>  (148) 
CC(Nc1ccc(NC(=O)Nc2cccnc2)cc1)C(=O)NN

>  <AutoDock Predicted Affinity>  (148) 
-6.05495

>  <ref_pdb>  (148) 
x0434_0

>  <ref_mols>  (148) 
x0434_0

>  <creator>  (148) 
Will Poole

>  <energy minimised>  (148) 
True

$$$$
WPC0394_minimised.pdb
     RDKit          3D

 22 23  0  0  1  0  0  0  0  0999 V2000
   14.4470    1.1240   20.9220 C   0  0  0  0  0  0  0  0  0  0  0  0
   14.5900    1.6880   22.3460 C   0  0  2  0  0  0  0  0  0  0  0  0
   13.9120    0.7630   23.2940 N   0  0  0  0  0  0  0  0  0  0  0  0
   12.5600    0.5110   23.1230 C   0  0  0  0  0  0  0  0  0  0  0  0
   12.1520   -0.6100   22.3830 C   0  0  0  0  0  0  0  0  0  0  0  0
   10.7960   -0.8060   22.0860 C   0  0  0  0  0  0  0  0  0  0  0  0
    9.8410    0.1150   22.5410 C   0  0  0  0  0  0  0  0  0  0  0  0
    8.4930   -0.0030   22.1490 N   0  0  0  0  0  0  0  0  0  0  0  0
    8.0500    0.0810   20.8570 C   0  0  0  0  0  0  0  0  0  0  0  0
    8.7720    0.0870   19.8790 O   0  0  0  0  0  0  0  0  0  0  0  0
    6.6900    0.2060   20.7790 N   0  0  0  0  0  0  0  0  0  0  0  0
    5.9650    0.6540   19.6490 C   0  0  0  0  0  0  0  0  0  0  0  0
    4.9730    1.6230   19.8420 C   0  0  0  0  0  0  0  0  0  0  0  0
    4.3450    2.1490   18.7090 C   0  0  0  0  0  0  0  0  0  0  0  0
    4.7320    1.7070   17.4360 C   0  0  0  0  0  0  0  0  0  0  0  0
    5.6460    0.7300   17.2400 N   0  0  0  0  0  0  0  0  0  0  0  0
    6.2640    0.2360   18.3340 C   0  0  0  0  0  0  0  0  0  0  0  0
   10.2400    1.2120   23.3200 C   0  0  0  0  0  0  0  0  0  0  0  0
   11.6000    1.4110   23.6050 C   0  0  0  0  0  0  0  0  0  0  0  0
   14.1140    3.1710   22.4350 C   0  0  0  0  0  0  0  0  0  0  0  0
   13.0630    3.5970   22.0020 O   0  0  0  0  0  0  0  0  0  0  0  0
   14.9120    3.9850   23.1520 O   0  0  0  0  0  0  0  0  0  0  0  0
  2  1  1  6
  2 20  1  0
  2  3  1  0
  3  4  1  0
  4 19  2  0
  4  5  1  0
  5  6  2  0
  6  7  1  0
  7  8  1  0
  7 18  2  0
  8  9  1  0
  9 10  2  0
  9 11  1  0
 11 12  1  0
 12 13  2  0
 12 17  1  0
 13 14  1  0
 14 15  2  0
 15 16  1  0
 16 17  2  0
 18 19  1  0
 20 21  2  0
 20 22  1  0
M  END
>  <original SMILES>  (149) 
CC(Nc1ccc(NC(=O)Nc2cccnc2)cc1)C(=O)O

>  <AutoDock Predicted Affinity>  (149) 
-6.13621

>  <ref_pdb>  (149) 
x0434_0

>  <ref_mols>  (149) 
x0434_0

>  <creator>  (149) 
Will Poole

>  <energy minimised>  (149) 
True

$$$$
WPC0555_minimised.pdb
     RDKit          3D

 21 22  0  0  1  0  0  0  0  0999 V2000
   12.1250    3.9780   23.1010 C   0  0  0  0  0  0  0  0  0  0  0  0
   13.5660    3.8100   22.5900 C   0  0  1  0  0  0  0  0  0  0  0  0
   14.4580    4.4720   23.4850 O   0  0  0  0  0  0  0  0  0  0  0  0
   14.0290    2.3420   22.3480 C   0  0  0  0  0  0  0  0  0  0  0  0
   13.6180    1.2410   23.3630 C   0  0  0  0  0  0  0  0  0  0  0  0
   12.2390    0.6590   23.1180 C   0  0  0  0  0  0  0  0  0  0  0  0
   12.0290   -0.1760   22.0110 C   0  0  0  0  0  0  0  0  0  0  0  0
   10.7360   -0.6220   21.7130 C   0  0  0  0  0  0  0  0  0  0  0  0
    9.6470   -0.2190   22.4980 C   0  0  0  0  0  0  0  0  0  0  0  0
    8.3250   -0.4430   22.0580 N   0  0  0  0  0  0  0  0  0  0  0  0
    7.8790   -0.1330   20.8000 C   0  0  0  0  0  0  0  0  0  0  0  0
    8.6030    0.1430   19.8630 O   0  0  0  0  0  0  0  0  0  0  0  0
    6.5160   -0.1030   20.6980 N   0  0  0  0  0  0  0  0  0  0  0  0
    5.8210    0.4640   19.6030 C   0  0  0  0  0  0  0  0  0  0  0  0
    4.8680    1.4600   19.8460 C   0  0  0  0  0  0  0  0  0  0  0  0
    4.3140    2.1140   18.7380 C   0  0  0  0  0  0  0  0  0  0  0  0
    4.7390    1.7730   17.4470 C   0  0  0  0  0  0  0  0  0  0  0  0
    5.6210    0.7780   17.2000 N   0  0  0  0  0  0  0  0  0  0  0  0
    6.1600    0.1540   18.2670 C   0  0  0  0  0  0  0  0  0  0  0  0
    9.8680    0.5310   23.6620 C   0  0  0  0  0  0  0  0  0  0  0  0
   11.1660    0.9570   23.9790 C   0  0  0  0  0  0  0  0  0  0  0  0
  2  1  1  1
  2  3  1  0
  2  4  1  0
  4  5  1  0
  5  6  1  0
  6 21  2  0
  6  7  1  0
  7  8  2  0
  8  9  1  0
  9 10  1  0
  9 20  2  0
 10 11  1  0
 11 12  2  0
 11 13  1  0
 13 14  1  0
 14 15  2  0
 14 19  1  0
 15 16  1  0
 16 17  2  0
 17 18  1  0
 18 19  2  0
 20 21  1  0
M  END
>  <original SMILES>  (150) 
CC(O)CCc1ccc(NC(=O)Nc2cccnc2)cc1

>  <AutoDock Predicted Affinity>  (150) 
-6.371867

>  <ref_pdb>  (150) 
x0434_0

>  <ref_mols>  (150) 
x0434_0

>  <creator>  (150) 
Will Poole

>  <energy minimised>  (150) 
True

$$$$
WPC0716_minimised.pdb
     RDKit          3D

 22 23  0  0  1  0  0  0  0  0999 V2000
   13.5100    4.9730   21.8770 C   0  0  0  0  0  0  0  0  0  0  0  0
   12.6100    4.7690   23.1110 C   0  0  2  0  0  0  0  0  0  0  0  0
   13.2780    5.2770   24.2650 O   0  0  0  0  0  0  0  0  0  0  0  0
   12.2050    3.2900   23.3540 C   0  0  0  0  0  0  0  0  0  0  0  0
   13.3430    2.3450   23.2720 N   0  0  0  0  0  0  0  0  0  0  0  0
   13.1420    0.9900   23.8140 C   0  0  0  0  0  0  0  0  0  0  0  0
   11.8190    0.3740   23.4150 C   0  0  0  0  0  0  0  0  0  0  0  0
   11.7210   -0.3640   22.2270 C   0  0  0  0  0  0  0  0  0  0  0  0
   10.4680   -0.8170   21.7960 C   0  0  0  0  0  0  0  0  0  0  0  0
    9.3140   -0.5080   22.5320 C   0  0  0  0  0  0  0  0  0  0  0  0
    8.0330   -0.7130   21.9800 N   0  0  0  0  0  0  0  0  0  0  0  0
    7.6740   -0.3160   20.7200 C   0  0  0  0  0  0  0  0  0  0  0  0
    8.4530   -0.0120   19.8360 O   0  0  0  0  0  0  0  0  0  0  0  0
    6.3200   -0.2300   20.5620 N   0  0  0  0  0  0  0  0  0  0  0  0
    5.6890    0.4190   19.4770 C   0  0  0  0  0  0  0  0  0  0  0  0
    4.7400    1.4160   19.7370 C   0  0  0  0  0  0  0  0  0  0  0  0
    4.2430    2.1380   18.6450 C   0  0  0  0  0  0  0  0  0  0  0  0
    4.7170    1.8600   17.3550 C   0  0  0  0  0  0  0  0  0  0  0  0
    5.6020    0.8720   17.0930 N   0  0  0  0  0  0  0  0  0  0  0  0
    6.0840    0.1800   18.1440 C   0  0  0  0  0  0  0  0  0  0  0  0
    9.4230    0.1480   23.7650 C   0  0  0  0  0  0  0  0  0  0  0  0
   10.6790    0.5800   24.2130 C   0  0  0  0  0  0  0  0  0  0  0  0
  2  1  1  6
  2  3  1  0
  2  4  1  0
  4  5  1  0
  5  6  1  0
  6  7  1  0
  7 22  2  0
  7  8  1  0
  8  9  2  0
  9 10  1  0
 10 11  1  0
 10 21  2  0
 11 12  1  0
 12 13  2  0
 12 14  1  0
 14 15  1  0
 15 16  2  0
 15 20  1  0
 16 17  1  0
 17 18  2  0
 18 19  1  0
 19 20  2  0
 21 22  1  0
M  END
>  <original SMILES>  (151) 
CC(O)CNCc1ccc(NC(=O)Nc2cccnc2)cc1

>  <AutoDock Predicted Affinity>  (151) 
-6.25758

>  <ref_pdb>  (151) 
x0434_0

>  <ref_mols>  (151) 
x0434_0

>  <creator>  (151) 
Will Poole

>  <energy minimised>  (151) 
True

$$$$
WPC1060_minimised.pdb
     RDKit          3D

 19 20  0  0  1  0  0  0  0  0999 V2000
   14.0060   -2.0270   23.6350 C   0  0  0  0  0  0  0  0  0  0  0  0
   13.4210   -0.6490   23.9700 C   0  0  1  0  0  0  0  0  0  0  0  0
   14.1980    0.3370   23.3070 O   0  0  0  0  0  0  0  0  0  0  0  0
   11.9780   -0.5280   23.5120 C   0  0  0  0  0  0  0  0  0  0  0  0
   11.6290   -0.8780   22.1970 C   0  0  0  0  0  0  0  0  0  0  0  0
   10.2970   -0.7900   21.7780 C   0  0  0  0  0  0  0  0  0  0  0  0
    9.3050   -0.3020   22.6420 C   0  0  0  0  0  0  0  0  0  0  0  0
    7.9760   -0.1300   22.1900 N   0  0  0  0  0  0  0  0  0  0  0  0
    7.5980    0.2690   20.9350 C   0  0  0  0  0  0  0  0  0  0  0  0
    8.3660    0.5090   20.0240 O   0  0  0  0  0  0  0  0  0  0  0  0
    6.2440    0.3710   20.7830 N   0  0  0  0  0  0  0  0  0  0  0  0
    5.5960    0.8490   19.6190 C   0  0  0  0  0  0  0  0  0  0  0  0
    4.6000    1.8240   19.7460 C   0  0  0  0  0  0  0  0  0  0  0  0
    4.0850    2.3800   18.5700 C   0  0  0  0  0  0  0  0  0  0  0  0
    4.5830    1.9630   17.3280 C   0  0  0  0  0  0  0  0  0  0  0  0
    5.4980    0.9770   17.1900 N   0  0  0  0  0  0  0  0  0  0  0  0
    6.0010    0.4490   18.3250 C   0  0  0  0  0  0  0  0  0  0  0  0
    9.6430    0.0260   23.9630 C   0  0  0  0  0  0  0  0  0  0  0  0
   10.9720   -0.1010   24.4000 C   0  0  0  0  0  0  0  0  0  0  0  0
  2  1  1  6
  2  3  1  0
  2  4  1  0
  4 19  2  0
  4  5  1  0
  5  6  2  0
  6  7  1  0
  7  8  1  0
  7 18  2  0
  8  9  1  0
  9 10  2  0
  9 11  1  0
 11 12  1  0
 12 13  2  0
 12 17  1  0
 13 14  1  0
 14 15  2  0
 15 16  1  0
 16 17  2  0
 18 19  1  0
M  END
>  <original SMILES>  (152) 
CC(O)c1ccc(NC(=O)Nc2cccnc2)cc1

>  <AutoDock Predicted Affinity>  (152) 
-6.138795

>  <ref_pdb>  (152) 
x0434_0

>  <ref_mols>  (152) 
x0434_0

>  <creator>  (152) 
Will Poole

>  <energy minimised>  (152) 
True

$$$$
WPC0687_minimised.pdb
     RDKit          3D

 23 24  0  0  1  0  0  0  0  0999 V2000
   11.8280    3.7390   24.0040 C   0  0  0  0  0  0  0  0  0  0  0  0
   12.6220    3.3280   22.7420 C   0  0  2  0  0  0  0  0  0  0  0  0
   13.8590    1.9640   22.9750 S   0  0  0  0  0  0  0  0  0  0  0  0
   13.0970    0.5990   23.9270 C   0  0  0  0  0  0  0  0  0  0  0  0
   11.7230    0.1990   23.4480 C   0  0  0  0  0  0  0  0  0  0  0  0
   11.5820   -0.3980   22.1880 C   0  0  0  0  0  0  0  0  0  0  0  0
   10.3050   -0.7020   21.7080 C   0  0  0  0  0  0  0  0  0  0  0  0
    9.1660   -0.3760   22.4610 C   0  0  0  0  0  0  0  0  0  0  0  0
    7.8810   -0.4610   21.8890 N   0  0  0  0  0  0  0  0  0  0  0  0
    7.5680   -0.0410   20.6250 C   0  0  0  0  0  0  0  0  0  0  0  0
    8.3810    0.2610   19.7710 O   0  0  0  0  0  0  0  0  0  0  0  0
    6.2200    0.0520   20.4260 N   0  0  0  0  0  0  0  0  0  0  0  0
    5.6170    0.6740   19.3110 C   0  0  0  0  0  0  0  0  0  0  0  0
    4.6270    1.6410   19.5210 C   0  0  0  0  0  0  0  0  0  0  0  0
    4.1590    2.3410   18.4030 C   0  0  0  0  0  0  0  0  0  0  0  0
    4.7050    2.0770   17.1400 C   0  0  0  0  0  0  0  0  0  0  0  0
    5.6250    1.1090   16.9220 N   0  0  0  0  0  0  0  0  0  0  0  0
    6.0740    0.4350   17.9980 C   0  0  0  0  0  0  0  0  0  0  0  0
    9.3100    0.1430   23.7550 C   0  0  0  0  0  0  0  0  0  0  0  0
   10.5910    0.4120   24.2570 C   0  0  0  0  0  0  0  0  0  0  0  0
   13.4360    4.5240   22.2460 C   0  0  0  0  0  0  0  0  0  0  0  0
   14.4510    4.9120   22.7890 O   0  0  0  0  0  0  0  0  0  0  0  0
   12.8660    5.2560   21.2850 O   0  0  0  0  0  0  0  0  0  0  0  0
  2  1  1  1
  2 21  1  0
  2  3  1  0
  3  4  1  0
  4  5  1  0
  5 20  2  0
  5  6  1  0
  6  7  2  0
  7  8  1  0
  8  9  1  0
  8 19  2  0
  9 10  1  0
 10 11  2  0
 10 12  1  0
 12 13  1  0
 13 14  2  0
 13 18  1  0
 14 15  1  0
 15 16  2  0
 16 17  1  0
 17 18  2  0
 19 20  1  0
 21 22  2  0
 21 23  1  0
M  END
>  <original SMILES>  (153) 
CC(SCc1ccc(NC(=O)Nc2cccnc2)cc1)C(=O)O

>  <AutoDock Predicted Affinity>  (153) 
-5.78902

>  <ref_pdb>  (153) 
x0434_0

>  <ref_mols>  (153) 
x0434_0

>  <creator>  (153) 
Will Poole

>  <energy minimised>  (153) 
True

$$$$
WPC0978_minimised.pdb
     RDKit          3D

 23 25  0  0  1  0  0  0  0  0999 V2000
   12.5400    4.8330   21.8860 C   0  0  0  0  0  0  0  0  0  0  0  0
   13.3690    4.1530   22.9750 C   0  0  2  0  0  0  0  0  0  0  0  0
   14.7220    3.6300   22.4470 C   0  0  0  0  0  0  0  0  0  0  0  0
   14.6930    2.1740   22.7100 N   0  0  0  0  0  0  0  0  0  0  0  0
   13.5760    1.8660   23.2390 C   0  0  0  0  0  0  0  0  0  0  0  0
   13.2020    0.4930   23.7360 C   0  0  0  0  0  0  0  0  0  0  0  0
   11.7580    0.1120   23.4560 C   0  0  0  0  0  0  0  0  0  0  0  0
   11.4650   -0.8180   22.4450 C   0  0  0  0  0  0  0  0  0  0  0  0
   10.1360   -1.0350   22.0580 C   0  0  0  0  0  0  0  0  0  0  0  0
    9.0990   -0.3400   22.6970 C   0  0  0  0  0  0  0  0  0  0  0  0
    7.7930   -0.3850   22.1750 N   0  0  0  0  0  0  0  0  0  0  0  0
    7.4770   -0.0240   20.8940 C   0  0  0  0  0  0  0  0  0  0  0  0
    8.2920    0.2040   20.0200 O   0  0  0  0  0  0  0  0  0  0  0  0
    6.1320    0.0960   20.6960 N   0  0  0  0  0  0  0  0  0  0  0  0
    5.5310    0.6660   19.5500 C   0  0  0  0  0  0  0  0  0  0  0  0
    4.5660    1.6660   19.7190 C   0  0  0  0  0  0  0  0  0  0  0  0
    4.0810    2.3000   18.5690 C   0  0  0  0  0  0  0  0  0  0  0  0
    4.5740    1.9250   17.3110 C   0  0  0  0  0  0  0  0  0  0  0  0
    5.4700    0.9270   17.1350 N   0  0  0  0  0  0  0  0  0  0  0  0
    5.9490    0.3290   18.2440 C   0  0  0  0  0  0  0  0  0  0  0  0
    9.3790    0.5020   23.7820 C   0  0  0  0  0  0  0  0  0  0  0  0
   10.7090    0.7240   24.1670 C   0  0  0  0  0  0  0  0  0  0  0  0
   12.7330    2.9300   23.4320 N   0  0  0  0  0  0  0  0  0  0  0  0
  2  1  1  6
  2 23  1  0
  2  3  1  0
  3  4  1  0
  4  5  2  0
  5  6  1  0
  5 23  1  0
  6  7  1  0
  7 22  1  0
  7  8  2  0
  8  9  1  0
  9 10  2  0
 10 11  1  0
 10 21  1  0
 11 12  1  0
 12 13  2  0
 12 14  1  0
 14 15  1  0
 15 16  2  0
 15 20  1  0
 16 17  1  0
 17 18  2  0
 18 19  1  0
 19 20  2  0
 21 22  2  0
M  END
>  <original SMILES>  (154) 
CC1CN=C(Cc2ccc(NC(=O)Nc3cccnc3)cc2)N1

>  <AutoDock Predicted Affinity>  (154) 
-6.6661

>  <ref_pdb>  (154) 
x0434_0

>  <ref_mols>  (154) 
x0434_0

>  <creator>  (154) 
Will Poole

>  <energy minimised>  (154) 
True

$$$$
WPC0465_minimised.pdb
     RDKit          3D

 24 25  0  0  0  0  0  0  0  0999 V2000
    8.8620    5.4470   22.7430 C   0  0  0  0  0  0  0  0  0  0  0  0
    9.3180    4.0410   23.0620 C   0  0  0  0  0  0  0  0  0  0  0  0
   10.5390    3.6230   22.8660 C   0  0  0  0  0  0  0  0  0  0  0  0
   11.7680    3.2630   22.6240 C   0  0  0  0  0  0  0  0  0  0  0  0
   12.8220    3.1520   23.6870 C   0  0  0  0  0  0  0  0  0  0  0  0
   13.7580    2.0160   23.5210 N   0  0  0  0  0  0  0  0  0  0  0  0
   14.5970    1.9960   22.3180 C   0  0  0  0  0  0  0  0  0  0  0  0
   13.3390    0.6870   24.0050 C   0  0  0  0  0  0  0  0  0  0  0  0
   11.9530    0.2830   23.5490 C   0  0  0  0  0  0  0  0  0  0  0  0
   11.7660   -0.3030   22.2870 C   0  0  0  0  0  0  0  0  0  0  0  0
   10.4690   -0.5540   21.8220 C   0  0  0  0  0  0  0  0  0  0  0  0
    9.3550   -0.2040   22.6020 C   0  0  0  0  0  0  0  0  0  0  0  0
    8.0470   -0.2710   22.0760 N   0  0  0  0  0  0  0  0  0  0  0  0
    7.6780    0.1000   20.8100 C   0  0  0  0  0  0  0  0  0  0  0  0
    8.4470    0.3640   19.9070 O   0  0  0  0  0  0  0  0  0  0  0  0
    6.3230    0.1750   20.6560 N   0  0  0  0  0  0  0  0  0  0  0  0
    5.6730    0.7180   19.5240 C   0  0  0  0  0  0  0  0  0  0  0  0
    4.6940    1.7010   19.7110 C   0  0  0  0  0  0  0  0  0  0  0  0
    4.1720    2.3210   18.5690 C   0  0  0  0  0  0  0  0  0  0  0  0
    4.6470    1.9540   17.3020 C   0  0  0  0  0  0  0  0  0  0  0  0
    5.5530    0.9680   17.1100 N   0  0  0  0  0  0  0  0  0  0  0  0
    6.0670    0.3840   18.2100 C   0  0  0  0  0  0  0  0  0  0  0  0
    9.5440    0.3020   23.8960 C   0  0  0  0  0  0  0  0  0  0  0  0
   10.8410    0.5400   24.3730 C   0  0  0  0  0  0  0  0  0  0  0  0
  1  2  1  0
  2  3  2  0
  3  4  2  0
  4  5  1  0
  5  6  1  0
  6  7  1  0
  6  8  1  0
  8  9  1  0
  9 24  2  0
  9 10  1  0
 10 11  2  0
 11 12  1  0
 12 13  1  0
 12 23  2  0
 13 14  1  0
 14 15  2  0
 14 16  1  0
 16 17  1  0
 17 18  2  0
 17 22  1  0
 18 19  1  0
 19 20  2  0
 20 21  1  0
 21 22  2  0
 23 24  1  0
M  END
>  <original SMILES>  (155) 
CC=C=CCN(C)Cc1ccc(NC(=O)Nc2cccnc2)cc1

>  <AutoDock Predicted Affinity>  (155) 
-4.86073

>  <ref_pdb>  (155) 
x0434_0

>  <ref_mols>  (155) 
x0434_0

>  <creator>  (155) 
Will Poole

>  <energy minimised>  (155) 
True

$$$$
WPC1032_minimised.pdb
     RDKit          3D

 21 22  0  0  0  0  0  0  0  0999 V2000
   11.7440    5.1230   23.0130 C   0  0  0  0  0  0  0  0  0  0  0  0
   11.7090    3.5970   23.2350 C   0  0  0  0  0  0  0  0  0  0  0  0
   13.1020    2.9570   23.3240 C   0  0  0  0  0  0  0  0  0  0  0  0
   14.1060    3.6470   23.2590 O   0  0  0  0  0  0  0  0  0  0  0  0
   13.2090    1.4390   23.5810 C   0  0  0  0  0  0  0  0  0  0  0  0
   11.9420    0.6560   23.2900 C   0  0  0  0  0  0  0  0  0  0  0  0
   11.8420   -0.0850   22.1040 C   0  0  0  0  0  0  0  0  0  0  0  0
   10.6140   -0.6490   21.7440 C   0  0  0  0  0  0  0  0  0  0  0  0
    9.4780   -0.4460   22.5430 C   0  0  0  0  0  0  0  0  0  0  0  0
    8.1880   -0.7140   22.0390 N   0  0  0  0  0  0  0  0  0  0  0  0
    7.7600   -0.3270   20.7940 C   0  0  0  0  0  0  0  0  0  0  0  0
    8.4940    0.0150   19.8860 O   0  0  0  0  0  0  0  0  0  0  0  0
    6.3990   -0.2920   20.6730 N   0  0  0  0  0  0  0  0  0  0  0  0
    5.7290    0.3340   19.5940 C   0  0  0  0  0  0  0  0  0  0  0  0
    4.8040    1.3510   19.8590 C   0  0  0  0  0  0  0  0  0  0  0  0
    4.2830    2.0580   18.7670 C   0  0  0  0  0  0  0  0  0  0  0  0
    4.7060    1.7380   17.4680 C   0  0  0  0  0  0  0  0  0  0  0  0
    5.5670    0.7300   17.2020 N   0  0  0  0  0  0  0  0  0  0  0  0
    6.0760    0.0590   18.2540 C   0  0  0  0  0  0  0  0  0  0  0  0
    9.6100    0.1780   23.7910 C   0  0  0  0  0  0  0  0  0  0  0  0
   10.8490    0.7090   24.1760 C   0  0  0  0  0  0  0  0  0  0  0  0
  1  2  1  0
  2  3  1  0
  3  4  2  0
  3  5  1  0
  5  6  1  0
  6 21  2  0
  6  7  1  0
  7  8  2  0
  8  9  1  0
  9 10  1  0
  9 20  2  0
 10 11  1  0
 11 12  2  0
 11 13  1  0
 13 14  1  0
 14 15  2  0
 14 19  1  0
 15 16  1  0
 16 17  2  0
 17 18  1  0
 18 19  2  0
 20 21  1  0
M  END
>  <original SMILES>  (156) 
CCC(=O)Cc1ccc(NC(=O)Nc2cccnc2)cc1

>  <AutoDock Predicted Affinity>  (156) 
-5.8537

>  <ref_pdb>  (156) 
x0434_0

>  <ref_mols>  (156) 
x0434_0

>  <creator>  (156) 
Will Poole

>  <energy minimised>  (156) 
True

$$$$
WPC0643_minimised.pdb
     RDKit          3D

 23 24  0  0  0  0  0  0  0  0999 V2000
   12.2800    6.0540   24.2580 C   0  0  0  0  0  0  0  0  0  0  0  0
   12.1360    4.9350   23.1990 C   0  0  0  0  0  0  0  0  0  0  0  0
   13.4220    4.1590   22.9180 C   0  0  0  0  0  0  0  0  0  0  0  0
   14.5150    4.4880   23.3350 O   0  0  0  0  0  0  0  0  0  0  0  0
   13.2290    2.9870   22.2300 N   0  0  0  0  0  0  0  0  0  0  0  0
   14.1930    1.8740   22.2080 C   0  0  0  0  0  0  0  0  0  0  0  0
   13.7880    0.7350   23.1630 C   0  0  0  0  0  0  0  0  0  0  0  0
   12.3420    0.3190   22.9760 C   0  0  0  0  0  0  0  0  0  0  0  0
   11.9990   -0.6240   21.9940 C   0  0  0  0  0  0  0  0  0  0  0  0
   10.6490   -0.9160   21.7560 C   0  0  0  0  0  0  0  0  0  0  0  0
    9.6440   -0.2570   22.4790 C   0  0  0  0  0  0  0  0  0  0  0  0
    8.2980   -0.3760   22.0800 N   0  0  0  0  0  0  0  0  0  0  0  0
    7.8600   -0.0510   20.8260 C   0  0  0  0  0  0  0  0  0  0  0  0
    8.6010    0.2200   19.8990 O   0  0  0  0  0  0  0  0  0  0  0  0
    6.4980   -0.0130   20.7130 N   0  0  0  0  0  0  0  0  0  0  0  0
    5.8110    0.5290   19.6010 C   0  0  0  0  0  0  0  0  0  0  0  0
    4.8320    1.5060   19.8190 C   0  0  0  0  0  0  0  0  0  0  0  0
    4.2900    2.1440   18.6970 C   0  0  0  0  0  0  0  0  0  0  0  0
    4.7490    1.8050   17.4170 C   0  0  0  0  0  0  0  0  0  0  0  0
    5.6490    0.8210   17.1930 N   0  0  0  0  0  0  0  0  0  0  0  0
    6.1770    0.2130   18.2750 C   0  0  0  0  0  0  0  0  0  0  0  0
    9.9850    0.6330   23.5050 C   0  0  0  0  0  0  0  0  0  0  0  0
   11.3350    0.9160   23.7560 C   0  0  0  0  0  0  0  0  0  0  0  0
  1  2  1  0
  2  3  1  0
  3  4  2  0
  3  5  1  0
  5  6  1  0
  6  7  1  0
  7  8  1  0
  8 23  2  0
  8  9  1  0
  9 10  2  0
 10 11  1  0
 11 12  1  0
 11 22  2  0
 12 13  1  0
 13 14  2  0
 13 15  1  0
 15 16  1  0
 16 17  2  0
 16 21  1  0
 17 18  1  0
 18 19  2  0
 19 20  1  0
 20 21  2  0
 22 23  1  0
M  END
>  <original SMILES>  (157) 
CCC(=O)NCCc1ccc(NC(=O)Nc2cccnc2)cc1

>  <AutoDock Predicted Affinity>  (157) 
-6.367623

>  <ref_pdb>  (157) 
x0434_0

>  <ref_mols>  (157) 
x0434_0

>  <creator>  (157) 
Will Poole

>  <energy minimised>  (157) 
True

$$$$
WPC0892_minimised.pdb
     RDKit          3D

 22 23  0  0  0  0  0  0  0  0999 V2000
   13.8380    4.7560   21.1320 C   0  0  0  0  0  0  0  0  0  0  0  0
   13.7910    4.7410   22.6690 C   0  0  0  0  0  0  0  0  0  0  0  0
   13.0550    3.5430   23.2500 C   0  0  0  0  0  0  0  0  0  0  0  0
   12.1900    3.6880   24.0910 O   0  0  0  0  0  0  0  0  0  0  0  0
   13.5280    2.3070   22.8680 N   0  0  0  0  0  0  0  0  0  0  0  0
   13.2340    1.0560   23.5780 C   0  0  0  0  0  0  0  0  0  0  0  0
   11.8620    0.5040   23.2540 C   0  0  0  0  0  0  0  0  0  0  0  0
   11.7010   -0.4480   22.2340 C   0  0  0  0  0  0  0  0  0  0  0  0
   10.4150   -0.8700   21.8680 C   0  0  0  0  0  0  0  0  0  0  0  0
    9.2900   -0.3380   22.5160 C   0  0  0  0  0  0  0  0  0  0  0  0
    7.9940   -0.5710   22.0180 N   0  0  0  0  0  0  0  0  0  0  0  0
    7.6230   -0.3010   20.7290 C   0  0  0  0  0  0  0  0  0  0  0  0
    8.3980   -0.1430   19.8050 O   0  0  0  0  0  0  0  0  0  0  0  0
    6.2720   -0.1480   20.5920 N   0  0  0  0  0  0  0  0  0  0  0  0
    5.6460    0.4810   19.4910 C   0  0  0  0  0  0  0  0  0  0  0  0
    4.7070    1.4910   19.7330 C   0  0  0  0  0  0  0  0  0  0  0  0
    4.2090    2.1960   18.6300 C   0  0  0  0  0  0  0  0  0  0  0  0
    4.6700    1.8840   17.3430 C   0  0  0  0  0  0  0  0  0  0  0  0
    5.5430    0.8810   17.0960 N   0  0  0  0  0  0  0  0  0  0  0  0
    6.0280    0.2080   18.1590 C   0  0  0  0  0  0  0  0  0  0  0  0
    9.4520    0.5460   23.5900 C   0  0  0  0  0  0  0  0  0  0  0  0
   10.7370    0.9620   23.9630 C   0  0  0  0  0  0  0  0  0  0  0  0
  1  2  1  0
  2  3  1  0
  3  4  2  0
  3  5  1  0
  5  6  1  0
  6  7  1  0
  7 22  2  0
  7  8  1  0
  8  9  2  0
  9 10  1  0
 10 11  1  0
 10 21  2  0
 11 12  1  0
 12 13  2  0
 12 14  1  0
 14 15  1  0
 15 16  2  0
 15 20  1  0
 16 17  1  0
 17 18  2  0
 18 19  1  0
 19 20  2  0
 21 22  1  0
M  END
>  <original SMILES>  (158) 
CCC(=O)NCc1ccc(NC(=O)Nc2cccnc2)cc1

>  <AutoDock Predicted Affinity>  (158) 
-6.52937

>  <ref_pdb>  (158) 
x0434_0

>  <ref_mols>  (158) 
x0434_0

>  <creator>  (158) 
Will Poole

>  <energy minimised>  (158) 
True

$$$$
WPC0531_minimised.pdb
     RDKit          3D

 23 24  0  0  0  0  0  0  0  0999 V2000
   12.2270    6.1060   24.2980 C   0  0  0  0  0  0  0  0  0  0  0  0
   11.9770    4.9530   23.2980 C   0  0  0  0  0  0  0  0  0  0  0  0
   13.2190    4.1180   22.9880 C   0  0  0  0  0  0  0  0  0  0  0  0
   14.3610    4.5290   23.1090 O   0  0  0  0  0  0  0  0  0  0  0  0
   12.8970    2.7970   23.0020 O   0  0  0  0  0  0  0  0  0  0  0  0
   13.8790    1.7940   22.6820 C   0  0  0  0  0  0  0  0  0  0  0  0
   13.5080    0.4890   23.4060 C   0  0  0  0  0  0  0  0  0  0  0  0
   12.0670    0.0830   23.1550 C   0  0  0  0  0  0  0  0  0  0  0  0
   11.7510   -0.8070   22.1160 C   0  0  0  0  0  0  0  0  0  0  0  0
   10.4080   -1.0720   21.8130 C   0  0  0  0  0  0  0  0  0  0  0  0
    9.3830   -0.4330   22.5240 C   0  0  0  0  0  0  0  0  0  0  0  0
    8.0550   -0.5020   22.0620 N   0  0  0  0  0  0  0  0  0  0  0  0
    7.6780   -0.1520   20.7930 C   0  0  0  0  0  0  0  0  0  0  0  0
    8.4530    0.0620   19.8790 O   0  0  0  0  0  0  0  0  0  0  0  0
    6.3250   -0.0180   20.6590 N   0  0  0  0  0  0  0  0  0  0  0  0
    5.6810    0.5670   19.5440 C   0  0  0  0  0  0  0  0  0  0  0  0
    4.7180    1.5590   19.7610 C   0  0  0  0  0  0  0  0  0  0  0  0
    4.1980    2.2170   18.6400 C   0  0  0  0  0  0  0  0  0  0  0  0
    4.6620    1.8790   17.3600 C   0  0  0  0  0  0  0  0  0  0  0  0
    5.5550    0.8880   17.1380 N   0  0  0  0  0  0  0  0  0  0  0  0
    6.0620    0.2610   18.2190 C   0  0  0  0  0  0  0  0  0  0  0  0
    9.6930    0.3940   23.6100 C   0  0  0  0  0  0  0  0  0  0  0  0
   11.0340    0.6440   23.9300 C   0  0  0  0  0  0  0  0  0  0  0  0
  1  2  1  0
  2  3  1  0
  3  4  2  0
  3  5  1  0
  5  6  1  0
  6  7  1  0
  7  8  1  0
  8 23  2  0
  8  9  1  0
  9 10  2  0
 10 11  1  0
 11 12  1  0
 11 22  2  0
 12 13  1  0
 13 14  2  0
 13 15  1  0
 15 16  1  0
 16 17  2  0
 16 21  1  0
 17 18  1  0
 18 19  2  0
 19 20  1  0
 20 21  2  0
 22 23  1  0
M  END
>  <original SMILES>  (159) 
CCC(=O)OCCc1ccc(NC(=O)Nc2cccnc2)cc1

>  <AutoDock Predicted Affinity>  (159) 
-6.290715

>  <ref_pdb>  (159) 
x0434_0

>  <ref_mols>  (159) 
x0434_0

>  <creator>  (159) 
Will Poole

>  <energy minimised>  (159) 
True

$$$$
WPC0756_minimised.pdb
     RDKit          3D

 21 22  0  0  1  0  0  0  0  0999 V2000
   12.1710    3.9980   22.0390 C   0  0  0  0  0  0  0  0  0  0  0  0
   13.2450    3.7570   23.1150 C   0  0  0  0  0  0  0  0  0  0  0  0
   14.0410    2.4270   23.0000 C   0  0  2  0  0  0  0  0  0  0  0  0
   14.4230    2.0360   21.5750 C   0  0  0  0  0  0  0  0  0  0  0  0
   13.4180    1.2910   23.6990 N   0  0  0  0  0  0  0  0  0  0  0  0
   12.1480    0.8470   23.3870 C   0  0  0  0  0  0  0  0  0  0  0  0
   11.9690   -0.0870   22.3570 C   0  0  0  0  0  0  0  0  0  0  0  0
   10.6740   -0.4700   21.9770 C   0  0  0  0  0  0  0  0  0  0  0  0
    9.5600    0.0760   22.6350 C   0  0  0  0  0  0  0  0  0  0  0  0
    8.2550   -0.1670   22.1600 N   0  0  0  0  0  0  0  0  0  0  0  0
    7.8530    0.0490   20.8700 C   0  0  0  0  0  0  0  0  0  0  0  0
    8.6060    0.2660   19.9400 O   0  0  0  0  0  0  0  0  0  0  0  0
    6.4930    0.0540   20.7320 N   0  0  0  0  0  0  0  0  0  0  0  0
    5.8110    0.5670   19.6050 C   0  0  0  0  0  0  0  0  0  0  0  0
    4.8320    1.5480   19.8020 C   0  0  0  0  0  0  0  0  0  0  0  0
    4.2760    2.1490   18.6670 C   0  0  0  0  0  0  0  0  0  0  0  0
    4.7220    1.7680   17.3940 C   0  0  0  0  0  0  0  0  0  0  0  0
    5.6290    0.7850   17.1910 N   0  0  0  0  0  0  0  0  0  0  0  0
    6.1740    0.2160   18.2860 C   0  0  0  0  0  0  0  0  0  0  0  0
    9.7430    0.9570   23.7110 C   0  0  0  0  0  0  0  0  0  0  0  0
   11.0390    1.3410   24.0870 C   0  0  0  0  0  0  0  0  0  0  0  0
  1  2  1  0
  2  3  1  0
  3  4  1  6
  3  5  1  0
  5  6  1  0
  6 21  2  0
  6  7  1  0
  7  8  2  0
  8  9  1  0
  9 10  1  0
  9 20  2  0
 10 11  1  0
 11 12  2  0
 11 13  1  0
 13 14  1  0
 14 15  2  0
 14 19  1  0
 15 16  1  0
 16 17  2  0
 17 18  1  0
 18 19  2  0
 20 21  1  0
M  END
>  <original SMILES>  (160) 
CCC(C)Nc1ccc(NC(=O)Nc2cccnc2)cc1

>  <AutoDock Predicted Affinity>  (160) 
-5.32664

>  <ref_pdb>  (160) 
x0434_0

>  <ref_mols>  (160) 
x0434_0

>  <creator>  (160) 
Will Poole

>  <energy minimised>  (160) 
True

$$$$
WPC0371_minimised.pdb
     RDKit          3D

 24 25  0  0  1  0  0  0  0  0999 V2000
   11.2890    5.2330   23.5950 C   0  0  0  0  0  0  0  0  0  0  0  0
   12.8260    5.3450   23.7320 C   0  0  0  0  0  0  0  0  0  0  0  0
   13.6330    4.2970   22.9250 C   0  0  2  0  0  0  0  0  0  0  0  0
   13.4130    4.4280   21.4040 C   0  0  0  0  0  0  0  0  0  0  0  0
   13.2280    2.9860   23.3670 O   0  0  0  0  0  0  0  0  0  0  0  0
   13.9520    1.8840   23.0140 C   0  0  0  0  0  0  0  0  0  0  0  0
   14.9960    1.9100   22.3920 O   0  0  0  0  0  0  0  0  0  0  0  0
   13.4280    0.6030   23.6520 C   0  0  0  0  0  0  0  0  0  0  0  0
   11.9780    0.2970   23.3190 C   0  0  0  0  0  0  0  0  0  0  0  0
   11.6610   -0.7050   22.3860 C   0  0  0  0  0  0  0  0  0  0  0  0
   10.3260   -0.9240   22.0180 C   0  0  0  0  0  0  0  0  0  0  0  0
    9.3050   -0.1580   22.6010 C   0  0  0  0  0  0  0  0  0  0  0  0
    7.9830   -0.2590   22.1300 N   0  0  0  0  0  0  0  0  0  0  0  0
    7.6150    0.0160   20.8430 C   0  0  0  0  0  0  0  0  0  0  0  0
    8.3960    0.2000   19.9290 O   0  0  0  0  0  0  0  0  0  0  0  0
    6.2620    0.1190   20.6900 N   0  0  0  0  0  0  0  0  0  0  0  0
    5.6200    0.6620   19.5540 C   0  0  0  0  0  0  0  0  0  0  0  0
    4.6510    1.6560   19.7390 C   0  0  0  0  0  0  0  0  0  0  0  0
    4.1280    2.2730   18.5980 C   0  0  0  0  0  0  0  0  0  0  0  0
    4.5900    1.8920   17.3300 C   0  0  0  0  0  0  0  0  0  0  0  0
    5.4900    0.9000   17.1390 N   0  0  0  0  0  0  0  0  0  0  0  0
    6.0040    0.3160   18.2390 C   0  0  0  0  0  0  0  0  0  0  0  0
    9.6100    0.7900   23.5860 C   0  0  0  0  0  0  0  0  0  0  0  0
   10.9450    1.0170   23.9460 C   0  0  0  0  0  0  0  0  0  0  0  0
  1  2  1  0
  2  3  1  0
  3  4  1  6
  3  5  1  0
  5  6  1  0
  6  7  2  0
  6  8  1  0
  8  9  1  0
  9 24  2  0
  9 10  1  0
 10 11  2  0
 11 12  1  0
 12 13  1  0
 12 23  2  0
 13 14  1  0
 14 15  2  0
 14 16  1  0
 16 17  1  0
 17 18  2  0
 17 22  1  0
 18 19  1  0
 19 20  2  0
 20 21  1  0
 21 22  2  0
 23 24  1  0
M  END
>  <original SMILES>  (161) 
CCC(C)OC(=O)Cc1ccc(NC(=O)Nc2cccnc2)cc1

>  <AutoDock Predicted Affinity>  (161) 
-6.023825

>  <ref_pdb>  (161) 
x0434_0

>  <ref_mols>  (161) 
x0434_0

>  <creator>  (161) 
Will Poole

>  <energy minimised>  (161) 
True

$$$$
WPC1030_minimised.pdb
     RDKit          3D

 20 21  0  0  1  0  0  0  0  0999 V2000
   12.3430    4.0140   23.2030 C   0  0  0  0  0  0  0  0  0  0  0  0
   13.4550    3.0260   22.7900 C   0  0  0  0  0  0  0  0  0  0  0  0
   13.3080    1.5890   23.3640 C   0  0  2  0  0  0  0  0  0  0  0  0
   14.4870    0.7170   22.8890 C   0  0  0  0  0  0  0  0  0  0  0  0
   11.9490    0.9520   23.0790 C   0  0  0  0  0  0  0  0  0  0  0  0
   11.7470    0.0920   21.9810 C   0  0  0  0  0  0  0  0  0  0  0  0
   10.4720   -0.4090   21.7050 C   0  0  0  0  0  0  0  0  0  0  0  0
    9.3730   -0.0160   22.4790 C   0  0  0  0  0  0  0  0  0  0  0  0
    8.0620   -0.2790   22.0300 N   0  0  0  0  0  0  0  0  0  0  0  0
    7.6400   -0.0440   20.7470 C   0  0  0  0  0  0  0  0  0  0  0  0
    8.3810    0.1710   19.8060 O   0  0  0  0  0  0  0  0  0  0  0  0
    6.2790   -0.0060   20.6250 N   0  0  0  0  0  0  0  0  0  0  0  0
    5.6110    0.5520   19.5100 C   0  0  0  0  0  0  0  0  0  0  0  0
    4.6580    1.5550   19.7240 C   0  0  0  0  0  0  0  0  0  0  0  0
    4.1510    2.2200   18.6010 C   0  0  0  0  0  0  0  0  0  0  0  0
    4.6200    1.8810   17.3240 C   0  0  0  0  0  0  0  0  0  0  0  0
    5.4970    0.8760   17.1030 N   0  0  0  0  0  0  0  0  0  0  0  0
    5.9890    0.2400   18.1850 C   0  0  0  0  0  0  0  0  0  0  0  0
    9.5740    0.7720   23.6200 C   0  0  0  0  0  0  0  0  0  0  0  0
   10.8620    1.2360   23.9300 C   0  0  0  0  0  0  0  0  0  0  0  0
  1  2  1  0
  2  3  1  0
  3  4  1  6
  3  5  1  0
  5 20  2  0
  5  6  1  0
  6  7  2  0
  7  8  1  0
  8  9  1  0
  8 19  2  0
  9 10  1  0
 10 11  2  0
 10 12  1  0
 12 13  1  0
 13 14  2  0
 13 18  1  0
 14 15  1  0
 15 16  2  0
 16 17  1  0
 17 18  2  0
 19 20  1  0
M  END
>  <original SMILES>  (162) 
CCC(C)c1ccc(NC(=O)Nc2cccnc2)cc1

>  <AutoDock Predicted Affinity>  (162) 
-6.24073

>  <ref_pdb>  (162) 
x0434_0

>  <ref_mols>  (162) 
x0434_0

>  <creator>  (162) 
Will Poole

>  <energy minimised>  (162) 
True

$$$$
WPC0853_minimised.pdb
     RDKit          3D

 20 21  0  0  1  0  0  0  0  0999 V2000
   12.3390    4.1360   23.2740 C   0  0  0  0  0  0  0  0  0  0  0  0
   13.4810    3.2460   22.7360 C   0  0  0  0  0  0  0  0  0  0  0  0
   13.4860    1.7740   23.2330 C   0  0  2  0  0  0  0  0  0  0  0  0
   14.6640    1.1050   22.6790 N   0  0  0  0  0  0  0  0  0  0  0  0
   12.1880    1.0240   22.9760 C   0  0  0  0  0  0  0  0  0  0  0  0
   12.0510    0.1110   21.9150 C   0  0  0  0  0  0  0  0  0  0  0  0
   10.8070   -0.4800   21.6580 C   0  0  0  0  0  0  0  0  0  0  0  0
    9.6880   -0.1460   22.4350 C   0  0  0  0  0  0  0  0  0  0  0  0
    8.3880   -0.5010   22.0170 N   0  0  0  0  0  0  0  0  0  0  0  0
    7.9070   -0.2370   20.7620 C   0  0  0  0  0  0  0  0  0  0  0  0
    8.6060    0.0340   19.8050 O   0  0  0  0  0  0  0  0  0  0  0  0
    6.5410   -0.2270   20.6870 N   0  0  0  0  0  0  0  0  0  0  0  0
    5.8320    0.3590   19.6110 C   0  0  0  0  0  0  0  0  0  0  0  0
    4.9080    1.3770   19.8790 C   0  0  0  0  0  0  0  0  0  0  0  0
    4.3600    2.0620   18.7870 C   0  0  0  0  0  0  0  0  0  0  0  0
    4.7600    1.7280   17.4860 C   0  0  0  0  0  0  0  0  0  0  0  0
    5.6120    0.7130   17.2170 N   0  0  0  0  0  0  0  0  0  0  0  0
    6.1450    0.0580   18.2680 C   0  0  0  0  0  0  0  0  0  0  0  0
    9.8420    0.6780   23.5550 C   0  0  0  0  0  0  0  0  0  0  0  0
   11.0920    1.2460   23.8340 C   0  0  0  0  0  0  0  0  0  0  0  0
  1  2  1  0
  2  3  1  0
  3  4  1  6
  3  5  1  0
  5 20  2  0
  5  6  1  0
  6  7  2  0
  7  8  1  0
  8  9  1  0
  8 19  2  0
  9 10  1  0
 10 11  2  0
 10 12  1  0
 12 13  1  0
 13 14  2  0
 13 18  1  0
 14 15  1  0
 15 16  2  0
 16 17  1  0
 17 18  2  0
 19 20  1  0
M  END
>  <original SMILES>  (163) 
CCC(N)c1ccc(NC(=O)Nc2cccnc2)cc1

>  <AutoDock Predicted Affinity>  (163) 
-6.208675

>  <ref_pdb>  (163) 
x0434_0

>  <ref_mols>  (163) 
x0434_0

>  <creator>  (163) 
Will Poole

>  <energy minimised>  (163) 
True

$$$$
WPC0403_minimised.pdb
     RDKit          3D

 20 21  0  0  1  0  0  0  0  0999 V2000
   13.1270    1.8570   22.8070 C   0  0  0  0  0  0  0  0  0  0  0  0
   13.9640    0.5590   22.8440 C   0  0  0  0  0  0  0  0  0  0  0  0
   13.4010   -0.5060   23.8140 C   0  0  2  0  0  0  0  0  0  0  0  0
   14.1470   -1.7070   23.6670 O   0  0  0  0  0  0  0  0  0  0  0  0
   11.9330   -0.7690   23.5230 C   0  0  0  0  0  0  0  0  0  0  0  0
   11.5710   -1.3840   22.3140 C   0  0  0  0  0  0  0  0  0  0  0  0
   10.2300   -1.4210   21.9200 C   0  0  0  0  0  0  0  0  0  0  0  0
    9.2440   -0.8200   22.7150 C   0  0  0  0  0  0  0  0  0  0  0  0
    7.9420   -0.6410   22.2030 N   0  0  0  0  0  0  0  0  0  0  0  0
    7.6620   -0.1510   20.9530 C   0  0  0  0  0  0  0  0  0  0  0  0
    8.4930    0.0900   20.0980 O   0  0  0  0  0  0  0  0  0  0  0  0
    6.3260    0.0560   20.7530 N   0  0  0  0  0  0  0  0  0  0  0  0
    5.7520    0.6470   19.6030 C   0  0  0  0  0  0  0  0  0  0  0  0
    4.7760    1.6370   19.7610 C   0  0  0  0  0  0  0  0  0  0  0  0
    4.3100    2.2790   18.6080 C   0  0  0  0  0  0  0  0  0  0  0  0
    4.8360    1.9300   17.3570 C   0  0  0  0  0  0  0  0  0  0  0  0
    5.7380    0.9360   17.1880 N   0  0  0  0  0  0  0  0  0  0  0  0
    6.1950    0.3260   18.3000 C   0  0  0  0  0  0  0  0  0  0  0  0
    9.5860   -0.2880   23.9670 C   0  0  0  0  0  0  0  0  0  0  0  0
   10.9300   -0.2680   24.3740 C   0  0  0  0  0  0  0  0  0  0  0  0
  1  2  1  0
  2  3  1  0
  3  4  1  6
  3  5  1  0
  5 20  2  0
  5  6  1  0
  6  7  2  0
  7  8  1  0
  8  9  1  0
  8 19  2  0
  9 10  1  0
 10 11  2  0
 10 12  1  0
 12 13  1  0
 13 14  2  0
 13 18  1  0
 14 15  1  0
 15 16  2  0
 16 17  1  0
 17 18  2  0
 19 20  1  0
M  END
>  <original SMILES>  (164) 
CCC(O)c1ccc(NC(=O)Nc2cccnc2)cc1

>  <AutoDock Predicted Affinity>  (164) 
-6.42741

>  <ref_pdb>  (164) 
x0434_0

>  <ref_mols>  (164) 
x0434_0

>  <creator>  (164) 
Will Poole

>  <energy minimised>  (164) 
True

$$$$
WPC0785_minimised.pdb
     RDKit          3D

 24 25  0  0  0  0  0  0  0  0999 V2000
   12.2900    6.1000   24.5660 C   0  0  0  0  0  0  0  0  0  0  0  0
   11.7720    5.2140   23.4160 C   0  0  0  0  0  0  0  0  0  0  0  0
   12.8360    4.9870   22.3540 C   0  0  0  0  0  0  0  0  0  0  0  0
   13.3010    3.8480   21.9780 N   0  0  0  0  0  0  0  0  0  0  0  0
   12.9690    2.6590   22.5750 N   0  0  0  0  0  0  0  0  0  0  0  0
   13.8990    1.6870   22.9090 C   0  0  0  0  0  0  0  0  0  0  0  0
   15.0890    1.7920   22.6960 O   0  0  0  0  0  0  0  0  0  0  0  0
   13.3630    0.4270   23.5720 C   0  0  0  0  0  0  0  0  0  0  0  0
   11.9030    0.1370   23.2770 C   0  0  0  0  0  0  0  0  0  0  0  0
   11.5700   -0.7280   22.2230 C   0  0  0  0  0  0  0  0  0  0  0  0
   10.2280   -0.9120   21.8730 C   0  0  0  0  0  0  0  0  0  0  0  0
    9.2190   -0.2290   22.5660 C   0  0  0  0  0  0  0  0  0  0  0  0
    7.8960   -0.2560   22.0880 N   0  0  0  0  0  0  0  0  0  0  0  0
    7.5470    0.0460   20.8010 C   0  0  0  0  0  0  0  0  0  0  0  0
    8.3430    0.2190   19.8970 O   0  0  0  0  0  0  0  0  0  0  0  0
    6.1980    0.1760   20.6360 N   0  0  0  0  0  0  0  0  0  0  0  0
    5.5700    0.7190   19.4910 C   0  0  0  0  0  0  0  0  0  0  0  0
    4.5920    1.7060   19.6620 C   0  0  0  0  0  0  0  0  0  0  0  0
    4.0870    2.3240   18.5130 C   0  0  0  0  0  0  0  0  0  0  0  0
    4.5800    1.9560   17.2540 C   0  0  0  0  0  0  0  0  0  0  0  0
    5.4830    0.9650   17.0760 N   0  0  0  0  0  0  0  0  0  0  0  0
    5.9770    0.3770   18.1830 C   0  0  0  0  0  0  0  0  0  0  0  0
    9.5420    0.5750   23.6670 C   0  0  0  0  0  0  0  0  0  0  0  0
   10.8850    0.7530   24.0300 C   0  0  0  0  0  0  0  0  0  0  0  0
  1  2  1  0
  2  3  1  0
  3  4  2  0
  4  5  1  0
  5  6  1  0
  6  7  2  0
  6  8  1  0
  8  9  1  0
  9 24  2  0
  9 10  1  0
 10 11  2  0
 11 12  1  0
 12 13  1  0
 12 23  2  0
 13 14  1  0
 14 15  2  0
 14 16  1  0
 16 17  1  0
 17 18  2  0
 17 22  1  0
 18 19  1  0
 19 20  2  0
 20 21  1  0
 21 22  2  0
 23 24  1  0
M  END
>  <original SMILES>  (165) 
CCC=NNC(=O)Cc1ccc(NC(=O)Nc2cccnc2)cc1

>  <AutoDock Predicted Affinity>  (165) 
-6.62153

>  <ref_pdb>  (165) 
x0434_0

>  <ref_mols>  (165) 
x0434_0

>  <creator>  (165) 
Will Poole

>  <energy minimised>  (165) 
True

$$$$
WPC0422_minimised.pdb
     RDKit          3D

 24 25  0  0  0  0  0  0  0  0999 V2000
   10.0270    5.6460   23.4050 C   0  0  0  0  0  0  0  0  0  0  0  0
   11.1420    4.5820   23.4070 C   0  0  0  0  0  0  0  0  0  0  0  0
   12.4730    5.1390   22.8430 C   0  0  0  0  0  0  0  0  0  0  0  0
   13.6240    4.1470   22.8410 C   0  0  0  0  0  0  0  0  0  0  0  0
   14.6860    4.3900   23.3800 O   0  0  0  0  0  0  0  0  0  0  0  0
   13.3750    2.9570   22.2060 N   0  0  0  0  0  0  0  0  0  0  0  0
   14.2790    1.7960   22.2230 C   0  0  0  0  0  0  0  0  0  0  0  0
   13.8080    0.7050   23.2000 C   0  0  0  0  0  0  0  0  0  0  0  0
   12.3560    0.3250   22.9840 C   0  0  0  0  0  0  0  0  0  0  0  0
   12.0100   -0.6100   21.9960 C   0  0  0  0  0  0  0  0  0  0  0  0
   10.6600   -0.8830   21.7420 C   0  0  0  0  0  0  0  0  0  0  0  0
    9.6550   -0.2120   22.4550 C   0  0  0  0  0  0  0  0  0  0  0  0
    8.3100   -0.3270   22.0540 N   0  0  0  0  0  0  0  0  0  0  0  0
    7.8730   -0.0220   20.7940 C   0  0  0  0  0  0  0  0  0  0  0  0
    8.6140    0.2260   19.8620 O   0  0  0  0  0  0  0  0  0  0  0  0
    6.5120    0.0230   20.6840 N   0  0  0  0  0  0  0  0  0  0  0  0
    5.8220    0.5670   19.5740 C   0  0  0  0  0  0  0  0  0  0  0  0
    4.8430    1.5420   19.7980 C   0  0  0  0  0  0  0  0  0  0  0  0
    4.2910    2.1770   18.6790 C   0  0  0  0  0  0  0  0  0  0  0  0
    4.7440    1.8380   17.3960 C   0  0  0  0  0  0  0  0  0  0  0  0
    5.6460    0.8580   17.1670 N   0  0  0  0  0  0  0  0  0  0  0  0
    6.1820    0.2510   18.2460 C   0  0  0  0  0  0  0  0  0  0  0  0
    9.9980    0.6760   23.4830 C   0  0  0  0  0  0  0  0  0  0  0  0
   11.3480    0.9390   23.7500 C   0  0  0  0  0  0  0  0  0  0  0  0
  1  2  1  0
  2  3  1  0
  3  4  1  0
  4  5  2  0
  4  6  1  0
  6  7  1  0
  7  8  1  0
  8  9  1  0
  9 24  2  0
  9 10  1  0
 10 11  2  0
 11 12  1  0
 12 13  1  0
 12 23  2  0
 13 14  1  0
 14 15  2  0
 14 16  1  0
 16 17  1  0
 17 18  2  0
 17 22  1  0
 18 19  1  0
 19 20  2  0
 20 21  1  0
 21 22  2  0
 23 24  1  0
M  END
>  <original SMILES>  (166) 
CCCC(=O)NCCc1ccc(NC(=O)Nc2cccnc2)cc1

>  <AutoDock Predicted Affinity>  (166) 
-6.485937

>  <ref_pdb>  (166) 
x0434_0

>  <ref_mols>  (166) 
x0434_0

>  <creator>  (166) 
Will Poole

>  <energy minimised>  (166) 
True

$$$$
WPC0524_minimised.pdb
     RDKit          3D

 24 25  0  0  0  0  0  0  0  0999 V2000
   11.4090    5.1860   25.1410 C   0  0  0  0  0  0  0  0  0  0  0  0
   11.8990    5.7890   23.8200 C   0  0  0  0  0  0  0  0  0  0  0  0
   12.1850    4.7550   22.6980 C   0  0  0  0  0  0  0  0  0  0  0  0
   13.4570    3.9150   22.8230 C   0  0  0  0  0  0  0  0  0  0  0  0
   14.5420    4.3240   23.2080 O   0  0  0  0  0  0  0  0  0  0  0  0
   13.2030    2.6170   22.5050 O   0  0  0  0  0  0  0  0  0  0  0  0
   14.2420    1.6230   22.4050 C   0  0  0  0  0  0  0  0  0  0  0  0
   13.7870    0.3200   23.1020 C   0  0  0  0  0  0  0  0  0  0  0  0
   12.3180   -0.0040   22.8960 C   0  0  0  0  0  0  0  0  0  0  0  0
   11.9120   -0.9230   21.9150 C   0  0  0  0  0  0  0  0  0  0  0  0
   10.5450   -1.1470   21.7010 C   0  0  0  0  0  0  0  0  0  0  0  0
    9.5850   -0.4390   22.4380 C   0  0  0  0  0  0  0  0  0  0  0  0
    8.2340   -0.4770   22.0470 N   0  0  0  0  0  0  0  0  0  0  0  0
    7.8090   -0.1180   20.7960 C   0  0  0  0  0  0  0  0  0  0  0  0
    8.5570    0.1160   19.8650 O   0  0  0  0  0  0  0  0  0  0  0  0
    6.4510   -0.0080   20.6920 N   0  0  0  0  0  0  0  0  0  0  0  0
    5.7780    0.5580   19.5830 C   0  0  0  0  0  0  0  0  0  0  0  0
    4.8140    1.5470   19.8060 C   0  0  0  0  0  0  0  0  0  0  0  0
    4.2760    2.1940   18.6860 C   0  0  0  0  0  0  0  0  0  0  0  0
    4.7260    1.8500   17.4030 C   0  0  0  0  0  0  0  0  0  0  0  0
    5.6170    0.8580   17.1760 N   0  0  0  0  0  0  0  0  0  0  0  0
    6.1380    0.2410   18.2540 C   0  0  0  0  0  0  0  0  0  0  0  0
    9.9850    0.4200   23.4670 C   0  0  0  0  0  0  0  0  0  0  0  0
   11.3510    0.6280   23.6970 C   0  0  0  0  0  0  0  0  0  0  0  0
  1  2  1  0
  2  3  1  0
  3  4  1  0
  4  5  2  0
  4  6  1  0
  6  7  1  0
  7  8  1  0
  8  9  1  0
  9 24  2  0
  9 10  1  0
 10 11  2  0
 11 12  1  0
 12 13  1  0
 12 23  2  0
 13 14  1  0
 14 15  2  0
 14 16  1  0
 16 17  1  0
 17 18  2  0
 17 22  1  0
 18 19  1  0
 19 20  2  0
 20 21  1  0
 21 22  2  0
 23 24  1  0
M  END
>  <original SMILES>  (167) 
CCCC(=O)OCCc1ccc(NC(=O)Nc2cccnc2)cc1

>  <AutoDock Predicted Affinity>  (167) 
-6.225535

>  <ref_pdb>  (167) 
x0434_0

>  <ref_mols>  (167) 
x0434_0

>  <creator>  (167) 
Will Poole

>  <energy minimised>  (167) 
True

$$$$
WPC0867_minimised.pdb
     RDKit          3D

 21 22  0  0  1  0  0  0  0  0999 V2000
   11.9690    2.3560   22.1120 C   0  0  0  0  0  0  0  0  0  0  0  0
   13.0600    2.1780   23.1880 C   0  0  0  0  0  0  0  0  0  0  0  0
   13.8610    0.8490   23.1000 C   0  0  0  0  0  0  0  0  0  0  0  0
   13.3430   -0.2610   24.0440 C   0  0  2  0  0  0  0  0  0  0  0  0
   14.2230   -1.4230   23.9770 N   0  0  0  0  0  0  0  0  0  0  0  0
   11.9140   -0.6320   23.6940 C   0  0  0  0  0  0  0  0  0  0  0  0
   11.6350   -1.2880   22.4810 C   0  0  0  0  0  0  0  0  0  0  0  0
   10.3160   -1.3920   22.0270 C   0  0  0  0  0  0  0  0  0  0  0  0
    9.2690   -0.8290   22.7700 C   0  0  0  0  0  0  0  0  0  0  0  0
    7.9800   -0.7170   22.2100 N   0  0  0  0  0  0  0  0  0  0  0  0
    7.7070   -0.2620   20.9450 C   0  0  0  0  0  0  0  0  0  0  0  0
    8.5350   -0.0480   20.0790 O   0  0  0  0  0  0  0  0  0  0  0  0
    6.3710   -0.0460   20.7560 N   0  0  0  0  0  0  0  0  0  0  0  0
    5.7790    0.5500   19.6180 C   0  0  0  0  0  0  0  0  0  0  0  0
    4.8090    1.5430   19.8030 C   0  0  0  0  0  0  0  0  0  0  0  0
    4.3000    2.1750   18.6620 C   0  0  0  0  0  0  0  0  0  0  0  0
    4.7750    1.8070   17.3950 C   0  0  0  0  0  0  0  0  0  0  0  0
    5.6750    0.8160   17.2040 N   0  0  0  0  0  0  0  0  0  0  0  0
    6.1800    0.2210   18.3040 C   0  0  0  0  0  0  0  0  0  0  0  0
    9.5280   -0.2660   24.0280 C   0  0  0  0  0  0  0  0  0  0  0  0
   10.8490   -0.1710   24.4930 C   0  0  0  0  0  0  0  0  0  0  0  0
  1  2  1  0
  2  3  1  0
  3  4  1  0
  4  5  1  6
  4  6  1  0
  6 21  2  0
  6  7  1  0
  7  8  2  0
  8  9  1  0
  9 10  1  0
  9 20  2  0
 10 11  1  0
 11 12  2  0
 11 13  1  0
 13 14  1  0
 14 15  2  0
 14 19  1  0
 15 16  1  0
 16 17  2  0
 17 18  1  0
 18 19  2  0
 20 21  1  0
M  END
>  <original SMILES>  (168) 
CCCC(N)c1ccc(NC(=O)Nc2cccnc2)cc1

>  <AutoDock Predicted Affinity>  (168) 
-6.187784

>  <ref_pdb>  (168) 
x0434_0

>  <ref_mols>  (168) 
x0434_0

>  <creator>  (168) 
Will Poole

>  <energy minimised>  (168) 
True

$$$$
WPC1044_minimised.pdb
     RDKit          3D

 21 22  0  0  1  0  0  0  0  0999 V2000
   12.9160    3.7790   22.5680 C   0  0  0  0  0  0  0  0  0  0  0  0
   12.4470    2.4480   23.1870 C   0  0  0  0  0  0  0  0  0  0  0  0
   13.4980    1.3130   23.0590 C   0  0  0  0  0  0  0  0  0  0  0  0
   13.1700    0.0590   23.9060 C   0  0  2  0  0  0  0  0  0  0  0  0
   14.1300   -0.9590   23.6450 O   0  0  0  0  0  0  0  0  0  0  0  0
   11.7690   -0.4350   23.5890 C   0  0  0  0  0  0  0  0  0  0  0  0
   11.5250   -1.1130   22.3830 C   0  0  0  0  0  0  0  0  0  0  0  0
   10.2100   -1.3210   21.9540 C   0  0  0  0  0  0  0  0  0  0  0  0
    9.1360   -0.8260   22.7060 C   0  0  0  0  0  0  0  0  0  0  0  0
    7.8450   -0.7690   22.1430 N   0  0  0  0  0  0  0  0  0  0  0  0
    7.5700   -0.3050   20.8810 C   0  0  0  0  0  0  0  0  0  0  0  0
    8.4000   -0.0720   20.0220 O   0  0  0  0  0  0  0  0  0  0  0  0
    6.2340   -0.0920   20.6890 N   0  0  0  0  0  0  0  0  0  0  0  0
    5.6570    0.5370   19.5620 C   0  0  0  0  0  0  0  0  0  0  0  0
    4.7010    1.5400   19.7590 C   0  0  0  0  0  0  0  0  0  0  0  0
    4.2240    2.2140   18.6280 C   0  0  0  0  0  0  0  0  0  0  0  0
    4.7190    1.8770   17.3590 C   0  0  0  0  0  0  0  0  0  0  0  0
    5.6070    0.8780   17.1560 N   0  0  0  0  0  0  0  0  0  0  0  0
    6.0780    0.2400   18.2460 C   0  0  0  0  0  0  0  0  0  0  0  0
    9.3700   -0.2460   23.9610 C   0  0  0  0  0  0  0  0  0  0  0  0
   10.6870   -0.0570   24.4080 C   0  0  0  0  0  0  0  0  0  0  0  0
  1  2  1  0
  2  3  1  0
  3  4  1  0
  4  5  1  6
  4  6  1  0
  6 21  2  0
  6  7  1  0
  7  8  2  0
  8  9  1  0
  9 10  1  0
  9 20  2  0
 10 11  1  0
 11 12  2  0
 11 13  1  0
 13 14  1  0
 14 15  2  0
 14 19  1  0
 15 16  1  0
 16 17  2  0
 17 18  1  0
 18 19  2  0
 20 21  1  0
M  END
>  <original SMILES>  (169) 
CCCC(O)c1ccc(NC(=O)Nc2cccnc2)cc1

>  <AutoDock Predicted Affinity>  (169) 
-6.34625

>  <ref_pdb>  (169) 
x0434_0

>  <ref_mols>  (169) 
x0434_0

>  <creator>  (169) 
Will Poole

>  <energy minimised>  (169) 
True

$$$$
WPC0661_minimised.pdb
     RDKit          3D

 24 25  0  0  0  0  0  0  0  0999 V2000
    8.7890    5.4670   22.3420 C   0  0  0  0  0  0  0  0  0  0  0  0
    9.3940    4.2220   23.0200 C   0  0  0  0  0  0  0  0  0  0  0  0
   10.6420    4.5480   23.8800 C   0  0  0  0  0  0  0  0  0  0  0  0
   11.9310    4.7900   23.0550 C   0  0  0  0  0  0  0  0  0  0  0  0
   12.5170    3.4970   22.5260 C   0  0  0  0  0  0  0  0  0  0  0  0
   13.7500    3.0580   22.7980 C   0  0  0  0  0  0  0  0  0  0  0  0
   14.3150    1.7330   22.3280 C   0  0  0  0  0  0  0  0  0  0  0  0
   13.8690    0.5360   23.1930 C   0  0  0  0  0  0  0  0  0  0  0  0
   12.4000    0.2050   23.0100 C   0  0  0  0  0  0  0  0  0  0  0  0
   12.0070   -0.6650   21.9820 C   0  0  0  0  0  0  0  0  0  0  0  0
   10.6450   -0.8930   21.7490 C   0  0  0  0  0  0  0  0  0  0  0  0
    9.6740   -0.2360   22.5170 C   0  0  0  0  0  0  0  0  0  0  0  0
    8.3220   -0.2900   22.1260 N   0  0  0  0  0  0  0  0  0  0  0  0
    7.8850    0.0300   20.8680 C   0  0  0  0  0  0  0  0  0  0  0  0
    8.6240    0.2740   19.9330 O   0  0  0  0  0  0  0  0  0  0  0  0
    6.5240    0.0800   20.7560 N   0  0  0  0  0  0  0  0  0  0  0  0
    5.8350    0.6000   19.6340 C   0  0  0  0  0  0  0  0  0  0  0  0
    4.8510    1.5740   19.8350 C   0  0  0  0  0  0  0  0  0  0  0  0
    4.3030    2.1880   18.7020 C   0  0  0  0  0  0  0  0  0  0  0  0
    4.7620    1.8270   17.4270 C   0  0  0  0  0  0  0  0  0  0  0  0
    5.6660    0.8430   17.2200 N   0  0  0  0  0  0  0  0  0  0  0  0
    6.2010    0.2600   18.3120 C   0  0  0  0  0  0  0  0  0  0  0  0
   10.0630    0.5760   23.5910 C   0  0  0  0  0  0  0  0  0  0  0  0
   11.4260    0.7890   23.8400 C   0  0  0  0  0  0  0  0  0  0  0  0
  1  2  1  0
  2  3  1  0
  3  4  1  0
  4  5  1  0
  5  6  2  0
  6  7  1  0
  7  8  1  0
  8  9  1  0
  9 24  2  0
  9 10  1  0
 10 11  2  0
 11 12  1  0
 12 13  1  0
 12 23  2  0
 13 14  1  0
 14 15  2  0
 14 16  1  0
 16 17  1  0
 17 18  2  0
 17 22  1  0
 18 19  1  0
 19 20  2  0
 20 21  1  0
 21 22  2  0
 23 24  1  0
M  END
>  <original SMILES>  (170) 
CCCCC=CCCc1ccc(NC(=O)Nc2cccnc2)cc1

>  <AutoDock Predicted Affinity>  (170) 
-5.993145

>  <ref_pdb>  (170) 
x0434_0

>  <ref_mols>  (170) 
x0434_0

>  <creator>  (170) 
Will Poole

>  <energy minimised>  (170) 
True

$$$$
WPC0830_minimised.pdb
     RDKit          3D

 24 25  0  0  1  0  0  0  0  0999 V2000
    9.1880    3.9330   22.9700 C   0  0  0  0  0  0  0  0  0  0  0  0
   10.0210    4.8820   23.8560 C   0  0  0  0  0  0  0  0  0  0  0  0
   11.4770    5.1060   23.3780 C   0  0  0  0  0  0  0  0  0  0  0  0
   12.4370    3.9120   23.6120 C   0  0  0  0  0  0  0  0  0  0  0  0
   12.6330    2.9810   22.3930 C   0  0  0  0  0  0  0  0  0  0  0  0
   13.6590    1.8310   22.6230 C   0  0  0  0  0  0  0  0  0  0  0  0
   13.2590    0.7820   23.6920 C   0  0  2  0  0  0  0  0  0  0  0  0
   14.2280   -0.2610   23.7380 O   0  0  0  0  0  0  0  0  0  0  0  0
   11.8920    0.1900   23.4110 C   0  0  0  0  0  0  0  0  0  0  0  0
   11.7000   -0.6190   22.2790 C   0  0  0  0  0  0  0  0  0  0  0  0
   10.4040   -0.9710   21.8880 C   0  0  0  0  0  0  0  0  0  0  0  0
    9.2980   -0.5020   22.6120 C   0  0  0  0  0  0  0  0  0  0  0  0
    8.0020   -0.5940   22.0660 N   0  0  0  0  0  0  0  0  0  0  0  0
    7.6860   -0.1960   20.7930 C   0  0  0  0  0  0  0  0  0  0  0  0
    8.4950    0.0460   19.9180 O   0  0  0  0  0  0  0  0  0  0  0  0
    6.3400   -0.0470   20.6100 N   0  0  0  0  0  0  0  0  0  0  0  0
    5.7420    0.5760   19.4910 C   0  0  0  0  0  0  0  0  0  0  0  0
    4.7760    1.5680   19.6990 C   0  0  0  0  0  0  0  0  0  0  0  0
    4.2970    2.2550   18.5770 C   0  0  0  0  0  0  0  0  0  0  0  0
    4.8060    1.9500   17.3070 C   0  0  0  0  0  0  0  0  0  0  0  0
    5.7010    0.9600   17.0910 N   0  0  0  0  0  0  0  0  0  0  0  0
    6.1670    0.3030   18.1720 C   0  0  0  0  0  0  0  0  0  0  0  0
    9.4910    0.2100   23.8030 C   0  0  0  0  0  0  0  0  0  0  0  0
   10.7890    0.5540   24.2070 C   0  0  0  0  0  0  0  0  0  0  0  0
  1  2  1  0
  2  3  1  0
  3  4  1  0
  4  5  1  0
  5  6  1  0
  6  7  1  0
  7  8  1  6
  7  9  1  0
  9 24  2  0
  9 10  1  0
 10 11  2  0
 11 12  1  0
 12 13  1  0
 12 23  2  0
 13 14  1  0
 14 15  2  0
 14 16  1  0
 16 17  1  0
 17 18  2  0
 17 22  1  0
 18 19  1  0
 19 20  2  0
 20 21  1  0
 21 22  2  0
 23 24  1  0
M  END
>  <original SMILES>  (171) 
CCCCCCC(O)c1ccc(NC(=O)Nc2cccnc2)cc1

>  <AutoDock Predicted Affinity>  (171) 
-6.26419

>  <ref_pdb>  (171) 
x0434_0

>  <ref_mols>  (171) 
x0434_0

>  <creator>  (171) 
Will Poole

>  <energy minimised>  (171) 
True

$$$$
WPC0911_minimised.pdb
     RDKit          3D

 21 22  0  0  0  0  0  0  0  0999 V2000
   13.5850    5.1710   21.8950 C   0  0  0  0  0  0  0  0  0  0  0  0
   12.8920    4.8510   23.2340 C   0  0  0  0  0  0  0  0  0  0  0  0
   12.3970    3.3890   23.3560 C   0  0  0  0  0  0  0  0  0  0  0  0
   13.4540    2.3240   22.9640 C   0  0  0  0  0  0  0  0  0  0  0  0
   13.2320    0.9160   23.5760 C   0  0  0  0  0  0  0  0  0  0  0  0
   11.8580    0.3400   23.2920 C   0  0  0  0  0  0  0  0  0  0  0  0
   11.6780   -0.5600   22.2300 C   0  0  0  0  0  0  0  0  0  0  0  0
   10.3860   -0.9580   21.8660 C   0  0  0  0  0  0  0  0  0  0  0  0
    9.2740   -0.4550   22.5550 C   0  0  0  0  0  0  0  0  0  0  0  0
    7.9780   -0.6170   22.0290 N   0  0  0  0  0  0  0  0  0  0  0  0
    7.6350   -0.2670   20.7500 C   0  0  0  0  0  0  0  0  0  0  0  0
    8.4270   -0.0430   19.8540 O   0  0  0  0  0  0  0  0  0  0  0  0
    6.2850   -0.1290   20.5940 N   0  0  0  0  0  0  0  0  0  0  0  0
    5.6620    0.4980   19.4910 C   0  0  0  0  0  0  0  0  0  0  0  0
    4.7090    1.4970   19.7270 C   0  0  0  0  0  0  0  0  0  0  0  0
    4.2040    2.1880   18.6190 C   0  0  0  0  0  0  0  0  0  0  0  0
    4.6710    1.8740   17.3350 C   0  0  0  0  0  0  0  0  0  0  0  0
    5.5560    0.8800   17.0950 N   0  0  0  0  0  0  0  0  0  0  0  0
    6.0510    0.2230   18.1620 C   0  0  0  0  0  0  0  0  0  0  0  0
    9.4560    0.3410   23.6940 C   0  0  0  0  0  0  0  0  0  0  0  0
   10.7500    0.7260   24.0720 C   0  0  0  0  0  0  0  0  0  0  0  0
  1  2  1  0
  2  3  1  0
  3  4  1  0
  4  5  1  0
  5  6  1  0
  6 21  2  0
  6  7  1  0
  7  8  2  0
  8  9  1  0
  9 10  1  0
  9 20  2  0
 10 11  1  0
 11 12  2  0
 11 13  1  0
 13 14  1  0
 14 15  2  0
 14 19  1  0
 15 16  1  0
 16 17  2  0
 17 18  1  0
 18 19  2  0
 20 21  1  0
M  END
>  <original SMILES>  (172) 
CCCCCc1ccc(NC(=O)Nc2cccnc2)cc1

>  <AutoDock Predicted Affinity>  (172) 
-6.14292

>  <ref_pdb>  (172) 
x0434_0

>  <ref_mols>  (172) 
x0434_0

>  <creator>  (172) 
Will Poole

>  <energy minimised>  (172) 
True

$$$$
WPC1042_minimised.pdb
     RDKit          3D

 24 25  0  0  0  0  0  0  0  0999 V2000
   12.3150    6.5980   25.5050 C   0  0  0  0  0  0  0  0  0  0  0  0
   12.7640    5.8170   24.2570 C   0  0  0  0  0  0  0  0  0  0  0  0
   11.6010    5.2120   23.4420 C   0  0  0  0  0  0  0  0  0  0  0  0
   12.1390    4.3720   22.2640 C   0  0  0  0  0  0  0  0  0  0  0  0
   12.3520    2.9740   22.6430 N   0  0  0  0  0  0  0  0  0  0  0  0
   13.5610    2.4350   23.0100 C   0  0  0  0  0  0  0  0  0  0  0  0
   14.5660    3.1140   23.0200 O   0  0  0  0  0  0  0  0  0  0  0  0
   13.5480    0.9620   23.4470 C   0  0  0  0  0  0  0  0  0  0  0  0
   12.1850    0.3030   23.2910 C   0  0  0  0  0  0  0  0  0  0  0  0
   11.9460   -0.5590   22.2100 C   0  0  0  0  0  0  0  0  0  0  0  0
   10.6360   -0.9530   21.9160 C   0  0  0  0  0  0  0  0  0  0  0  0
    9.5670   -0.4810   22.6910 C   0  0  0  0  0  0  0  0  0  0  0  0
    8.2450   -0.6180   22.2230 N   0  0  0  0  0  0  0  0  0  0  0  0
    7.8380   -0.2070   20.9800 C   0  0  0  0  0  0  0  0  0  0  0  0
    8.5910    0.1540   20.0940 O   0  0  0  0  0  0  0  0  0  0  0  0
    6.4800   -0.1970   20.8330 N   0  0  0  0  0  0  0  0  0  0  0  0
    5.8030    0.3550   19.7200 C   0  0  0  0  0  0  0  0  0  0  0  0
    4.8260    1.3340   19.9360 C   0  0  0  0  0  0  0  0  0  0  0  0
    4.2630    1.9500   18.8120 C   0  0  0  0  0  0  0  0  0  0  0  0
    4.6920    1.5770   17.5300 C   0  0  0  0  0  0  0  0  0  0  0  0
    5.6060    0.6040   17.3100 N   0  0  0  0  0  0  0  0  0  0  0  0
    6.1630    0.0270   18.3940 C   0  0  0  0  0  0  0  0  0  0  0  0
    9.8160    0.2690   23.8480 C   0  0  0  0  0  0  0  0  0  0  0  0
   11.1290    0.6510   24.1570 C   0  0  0  0  0  0  0  0  0  0  0  0
  1  2  1  0
  2  3  1  0
  3  4  1  0
  4  5  1  0
  5  6  1  0
  6  7  2  0
  6  8  1  0
  8  9  1  0
  9 24  2  0
  9 10  1  0
 10 11  2  0
 11 12  1  0
 12 13  1  0
 12 23  2  0
 13 14  1  0
 14 15  2  0
 14 16  1  0
 16 17  1  0
 17 18  2  0
 17 22  1  0
 18 19  1  0
 19 20  2  0
 20 21  1  0
 21 22  2  0
 23 24  1  0
M  END
>  <original SMILES>  (173) 
CCCCNC(=O)Cc1ccc(NC(=O)Nc2cccnc2)cc1

>  <AutoDock Predicted Affinity>  (173) 
-6.006603

>  <ref_pdb>  (173) 
x0434_0

>  <ref_mols>  (173) 
x0434_0

>  <creator>  (173) 
Will Poole

>  <energy minimised>  (173) 
True

$$$$
WPC0873_minimised.pdb
     RDKit          3D

 21 22  0  0  0  0  0  0  0  0999 V2000
   12.6230    5.6600   23.6770 C   0  0  0  0  0  0  0  0  0  0  0  0
   13.5220    4.7040   22.8710 C   0  0  0  0  0  0  0  0  0  0  0  0
   12.9850    3.2570   22.9000 C   0  0  0  0  0  0  0  0  0  0  0  0
   14.0460    2.2180   22.4700 C   0  0  0  0  0  0  0  0  0  0  0  0
   13.9160    0.6600   23.4380 S   0  0  0  0  0  0  0  0  0  0  0  0
   12.2330    0.1810   23.1540 C   0  0  0  0  0  0  0  0  0  0  0  0
   11.9310   -0.6150   22.0430 C   0  0  0  0  0  0  0  0  0  0  0  0
   10.5920   -0.8960   21.7410 C   0  0  0  0  0  0  0  0  0  0  0  0
    9.5600   -0.3620   22.5260 C   0  0  0  0  0  0  0  0  0  0  0  0
    8.2220   -0.4470   22.0860 N   0  0  0  0  0  0  0  0  0  0  0  0
    7.8100   -0.0900   20.8290 C   0  0  0  0  0  0  0  0  0  0  0  0
    8.5640    0.1860   19.9140 O   0  0  0  0  0  0  0  0  0  0  0  0
    6.4510   -0.0260   20.7000 N   0  0  0  0  0  0  0  0  0  0  0  0
    5.7830    0.5360   19.5860 C   0  0  0  0  0  0  0  0  0  0  0  0
    4.8100    1.5190   19.8030 C   0  0  0  0  0  0  0  0  0  0  0  0
    4.2790    2.1660   18.6810 C   0  0  0  0  0  0  0  0  0  0  0  0
    4.7430    1.8290   17.4010 C   0  0  0  0  0  0  0  0  0  0  0  0
    5.6410    0.8430   17.1780 N   0  0  0  0  0  0  0  0  0  0  0  0
    6.1590    0.2270   18.2600 C   0  0  0  0  0  0  0  0  0  0  0  0
    9.8660    0.3690   23.6830 C   0  0  0  0  0  0  0  0  0  0  0  0
   11.2070    0.6320   24.0020 C   0  0  0  0  0  0  0  0  0  0  0  0
  1  2  1  0
  2  3  1  0
  3  4  1  0
  4  5  1  0
  5  6  1  0
  6 21  2  0
  6  7  1  0
  7  8  2  0
  8  9  1  0
  9 10  1  0
  9 20  2  0
 10 11  1  0
 11 12  2  0
 11 13  1  0
 13 14  1  0
 14 15  2  0
 14 19  1  0
 15 16  1  0
 16 17  2  0
 17 18  1  0
 18 19  2  0
 20 21  1  0
M  END
>  <original SMILES>  (174) 
CCCCSc1ccc(NC(=O)Nc2cccnc2)cc1

>  <AutoDock Predicted Affinity>  (174) 
-5.305715

>  <ref_pdb>  (174) 
x0434_0

>  <ref_mols>  (174) 
x0434_0

>  <creator>  (174) 
Will Poole

>  <energy minimised>  (174) 
True

$$$$
WPC0535_minimised.pdb
     RDKit          3D

 20 21  0  0  0  0  0  0  0  0999 V2000
   13.8060    5.2660   22.1850 C   0  0  0  0  0  0  0  0  0  0  0  0
   13.6450    4.0290   23.0860 C   0  0  0  0  0  0  0  0  0  0  0  0
   14.1770    2.7340   22.4290 C   0  0  0  0  0  0  0  0  0  0  0  0
   13.8950    1.4370   23.2230 C   0  0  0  0  0  0  0  0  0  0  0  0
   12.4890    0.9080   23.0080 C   0  0  0  0  0  0  0  0  0  0  0  0
   12.2460   -0.0310   21.9910 C   0  0  0  0  0  0  0  0  0  0  0  0
   10.9370   -0.4680   21.7410 C   0  0  0  0  0  0  0  0  0  0  0  0
    9.8650    0.0440   22.4880 C   0  0  0  0  0  0  0  0  0  0  0  0
    8.5310   -0.2320   22.1170 N   0  0  0  0  0  0  0  0  0  0  0  0
    8.0350   -0.0350   20.8560 C   0  0  0  0  0  0  0  0  0  0  0  0
    8.7250    0.1770   19.8790 O   0  0  0  0  0  0  0  0  0  0  0  0
    6.6690   -0.0350   20.7920 N   0  0  0  0  0  0  0  0  0  0  0  0
    5.9360    0.4670   19.6890 C   0  0  0  0  0  0  0  0  0  0  0  0
    4.9750    1.4610   19.9130 C   0  0  0  0  0  0  0  0  0  0  0  0
    4.3890    2.0640   18.7940 C   0  0  0  0  0  0  0  0  0  0  0  0
    4.7900    1.6770   17.5080 C   0  0  0  0  0  0  0  0  0  0  0  0
    5.6740    0.6800   17.2800 N   0  0  0  0  0  0  0  0  0  0  0  0
    6.2460    0.1050   18.3590 C   0  0  0  0  0  0  0  0  0  0  0  0
   10.1110    0.9350   23.5400 C   0  0  0  0  0  0  0  0  0  0  0  0
   11.4210    1.3620   23.8020 C   0  0  0  0  0  0  0  0  0  0  0  0
  1  2  1  0
  2  3  1  0
  3  4  1  0
  4  5  1  0
  5 20  2  0
  5  6  1  0
  6  7  2  0
  7  8  1  0
  8  9  1  0
  8 19  2  0
  9 10  1  0
 10 11  2  0
 10 12  1  0
 12 13  1  0
 13 14  2  0
 13 18  1  0
 14 15  1  0
 15 16  2  0
 16 17  1  0
 17 18  2  0
 19 20  1  0
M  END
>  <original SMILES>  (175) 
CCCCc1ccc(NC(=O)Nc2cccnc2)cc1

>  <AutoDock Predicted Affinity>  (175) 
-5.898943

>  <ref_pdb>  (175) 
x0434_0

>  <ref_mols>  (175) 
x0434_0

>  <creator>  (175) 
Will Poole

>  <energy minimised>  (175) 
True

$$$$
WPC0517_minimised.pdb
     RDKit          3D

 24 25  0  0  0  0  0  0  0  0999 V2000
   12.1880    6.8250   24.8240 C   0  0  0  0  0  0  0  0  0  0  0  0
   12.6800    5.4440   24.4090 C   0  0  0  0  0  0  0  0  0  0  0  0
   12.9870    5.2840   22.9020 C   0  0  0  0  0  0  0  0  0  0  0  0
   13.7290    4.0490   22.5960 N   0  0  0  0  0  0  0  0  0  0  0  0
   13.3360    2.8010   23.0100 C   0  0  0  0  0  0  0  0  0  0  0  0
   12.4560    2.6100   23.8200 O   0  0  0  0  0  0  0  0  0  0  0  0
   14.4740    1.5450   22.4280 S   0  0  0  0  0  0  0  0  0  0  0  0
   13.9210    0.0980   23.4140 C   0  0  0  0  0  0  0  0  0  0  0  0
   12.4740   -0.2720   23.1460 C   0  0  0  0  0  0  0  0  0  0  0  0
   12.1130   -0.8050   21.9040 C   0  0  0  0  0  0  0  0  0  0  0  0
   10.7600   -1.0080   21.6120 C   0  0  0  0  0  0  0  0  0  0  0  0
    9.7610   -0.6450   22.5250 C   0  0  0  0  0  0  0  0  0  0  0  0
    8.4050   -0.6190   22.1250 N   0  0  0  0  0  0  0  0  0  0  0  0
    7.9560   -0.1410   20.9200 C   0  0  0  0  0  0  0  0  0  0  0  0
    8.6780    0.2110   20.0070 O   0  0  0  0  0  0  0  0  0  0  0  0
    6.5930   -0.0790   20.8220 N   0  0  0  0  0  0  0  0  0  0  0  0
    5.9010    0.4770   19.7180 C   0  0  0  0  0  0  0  0  0  0  0  0
    4.9340    1.4640   19.9390 C   0  0  0  0  0  0  0  0  0  0  0  0
    4.3810    2.0950   18.8170 C   0  0  0  0  0  0  0  0  0  0  0  0
    4.8150    1.7360   17.5330 C   0  0  0  0  0  0  0  0  0  0  0  0
    5.7060    0.7440   17.3070 N   0  0  0  0  0  0  0  0  0  0  0  0
    6.2480    0.1480   18.3880 C   0  0  0  0  0  0  0  0  0  0  0  0
   10.1250   -0.2080   23.8050 C   0  0  0  0  0  0  0  0  0  0  0  0
   11.4820   -0.0420   24.1200 C   0  0  0  0  0  0  0  0  0  0  0  0
  1  2  1  0
  2  3  1  0
  3  4  1  0
  4  5  1  0
  5  6  2  0
  5  7  1  0
  7  8  1  0
  8  9  1  0
  9 24  2  0
  9 10  1  0
 10 11  2  0
 11 12  1  0
 12 13  1  0
 12 23  2  0
 13 14  1  0
 14 15  2  0
 14 16  1  0
 16 17  1  0
 17 18  2  0
 17 22  1  0
 18 19  1  0
 19 20  2  0
 20 21  1  0
 21 22  2  0
 23 24  1  0
M  END
>  <original SMILES>  (176) 
CCCNC(=O)SCc1ccc(NC(=O)Nc2cccnc2)cc1

>  <AutoDock Predicted Affinity>  (176) 
-5.451873

>  <ref_pdb>  (176) 
x0434_0

>  <ref_mols>  (176) 
x0434_0

>  <creator>  (176) 
Will Poole

>  <energy minimised>  (176) 
True

$$$$
WPC0737_minimised.pdb
     RDKit          3D

 22 23  0  0  0  0  0  0  0  0999 V2000
   14.1680    6.3740   22.0060 C   0  0  0  0  0  0  0  0  0  0  0  0
   13.4070    5.2650   22.7510 C   0  0  0  0  0  0  0  0  0  0  0  0
   13.8790    3.9080   22.2280 C   0  0  0  0  0  0  0  0  0  0  0  0
   13.4150    2.8090   23.0680 N   0  0  0  0  0  0  0  0  0  0  0  0
   14.1920    1.5930   22.8080 C   0  0  0  0  0  0  0  0  0  0  0  0
   13.6280    0.3740   23.5450 C   0  0  0  0  0  0  0  0  0  0  0  0
   12.1650    0.1110   23.2280 C   0  0  0  0  0  0  0  0  0  0  0  0
   11.8130   -0.8000   22.2180 C   0  0  0  0  0  0  0  0  0  0  0  0
   10.4660   -0.9790   21.8760 C   0  0  0  0  0  0  0  0  0  0  0  0
    9.4670   -0.2530   22.5410 C   0  0  0  0  0  0  0  0  0  0  0  0
    8.1320   -0.3080   22.0950 N   0  0  0  0  0  0  0  0  0  0  0  0
    7.7400   -0.0130   20.8180 C   0  0  0  0  0  0  0  0  0  0  0  0
    8.5050    0.1760   19.8920 O   0  0  0  0  0  0  0  0  0  0  0  0
    6.3830    0.0950   20.6890 N   0  0  0  0  0  0  0  0  0  0  0  0
    5.7210    0.6340   19.5620 C   0  0  0  0  0  0  0  0  0  0  0  0
    4.7460    1.6190   19.7610 C   0  0  0  0  0  0  0  0  0  0  0  0
    4.2060    2.2380   18.6270 C   0  0  0  0  0  0  0  0  0  0  0  0
    4.6600    1.8680   17.3530 C   0  0  0  0  0  0  0  0  0  0  0  0
    5.5600    0.8780   17.1490 N   0  0  0  0  0  0  0  0  0  0  0  0
    6.0890    0.2920   18.2420 C   0  0  0  0  0  0  0  0  0  0  0  0
    9.8090    0.6090   23.5920 C   0  0  0  0  0  0  0  0  0  0  0  0
   11.1560    0.7890   23.9370 C   0  0  0  0  0  0  0  0  0  0  0  0
  1  2  1  0
  2  3  1  0
  3  4  1  0
  4  5  1  0
  5  6  1  0
  6  7  1  0
  7 22  2  0
  7  8  1  0
  8  9  2  0
  9 10  1  0
 10 11  1  0
 10 21  2  0
 11 12  1  0
 12 13  2  0
 12 14  1  0
 14 15  1  0
 15 16  2  0
 15 20  1  0
 16 17  1  0
 17 18  2  0
 18 19  1  0
 19 20  2  0
 21 22  1  0
M  END
>  <original SMILES>  (177) 
CCCNCCc1ccc(NC(=O)Nc2cccnc2)cc1

>  <AutoDock Predicted Affinity>  (177) 
-5.63608

>  <ref_pdb>  (177) 
x0434_0

>  <ref_mols>  (177) 
x0434_0

>  <creator>  (177) 
Will Poole

>  <energy minimised>  (177) 
True

$$$$
WPC0419_minimised.pdb
     RDKit          3D

 21 22  0  0  0  0  0  0  0  0999 V2000
   13.2440    5.4400   22.3960 C   0  0  0  0  0  0  0  0  0  0  0  0
   14.0640    4.1470   22.4220 C   0  0  0  0  0  0  0  0  0  0  0  0
   13.2340    2.9530   22.9150 C   0  0  0  0  0  0  0  0  0  0  0  0
   14.1130    1.7830   23.0020 N   0  0  0  0  0  0  0  0  0  0  0  0
   13.5970    0.5990   23.6990 C   0  0  0  0  0  0  0  0  0  0  0  0
   12.1750    0.2330   23.3240 C   0  0  0  0  0  0  0  0  0  0  0  0
   11.9310   -0.6160   22.2340 C   0  0  0  0  0  0  0  0  0  0  0  0
   10.6120   -0.8980   21.8510 C   0  0  0  0  0  0  0  0  0  0  0  0
    9.5370   -0.3290   22.5490 C   0  0  0  0  0  0  0  0  0  0  0  0
    8.2200   -0.4630   22.0690 N   0  0  0  0  0  0  0  0  0  0  0  0
    7.8290   -0.1460   20.7970 C   0  0  0  0  0  0  0  0  0  0  0  0
    8.5900    0.0990   19.8810 O   0  0  0  0  0  0  0  0  0  0  0  0
    6.4700   -0.0790   20.6660 N   0  0  0  0  0  0  0  0  0  0  0  0
    5.7960    0.4900   19.5600 C   0  0  0  0  0  0  0  0  0  0  0  0
    4.8200    1.4650   19.7940 C   0  0  0  0  0  0  0  0  0  0  0  0
    4.2670    2.1120   18.6820 C   0  0  0  0  0  0  0  0  0  0  0  0
    4.7110    1.7770   17.3950 C   0  0  0  0  0  0  0  0  0  0  0  0
    5.6160    0.8000   17.1570 N   0  0  0  0  0  0  0  0  0  0  0  0
    6.1580    0.1880   18.2300 C   0  0  0  0  0  0  0  0  0  0  0  0
    9.7760    0.4680   23.6770 C   0  0  0  0  0  0  0  0  0  0  0  0
   11.0940    0.7450   24.0660 C   0  0  0  0  0  0  0  0  0  0  0  0
  1  2  1  0
  2  3  1  0
  3  4  1  0
  4  5  1  0
  5  6  1  0
  6 21  2  0
  6  7  1  0
  7  8  2  0
  8  9  1  0
  9 10  1  0
  9 20  2  0
 10 11  1  0
 11 12  2  0
 11 13  1  0
 13 14  1  0
 14 15  2  0
 14 19  1  0
 15 16  1  0
 16 17  2  0
 17 18  1  0
 18 19  2  0
 20 21  1  0
M  END
>  <original SMILES>  (178) 
CCCNCc1ccc(NC(=O)Nc2cccnc2)cc1

>  <AutoDock Predicted Affinity>  (178) 
-5.73769

>  <ref_pdb>  (178) 
x0434_0

>  <ref_mols>  (178) 
x0434_0

>  <creator>  (178) 
Will Poole

>  <energy minimised>  (178) 
True

$$$$
WPC0458_minimised.pdb
     RDKit          3D

 23 24  0  0  0  0  0  0  0  0999 V2000
   12.2650    5.3700   23.9310 C   0  0  0  0  0  0  0  0  0  0  0  0
   12.8660    5.0590   22.5420 C   0  0  0  0  0  0  0  0  0  0  0  0
   13.9210    3.9410   22.5610 C   0  0  0  0  0  0  0  0  0  0  0  0
   13.3330    2.7580   23.1280 O   0  0  0  0  0  0  0  0  0  0  0  0
   14.0310    1.5960   23.0190 C   0  0  0  0  0  0  0  0  0  0  0  0
   15.1060    1.4890   22.4630 O   0  0  0  0  0  0  0  0  0  0  0  0
   13.3550    0.4120   23.6870 C   0  0  0  0  0  0  0  0  0  0  0  0
   11.8920    0.2220   23.3260 C   0  0  0  0  0  0  0  0  0  0  0  0
   11.5170   -0.7770   22.4110 C   0  0  0  0  0  0  0  0  0  0  0  0
   10.1740   -0.9130   22.0330 C   0  0  0  0  0  0  0  0  0  0  0  0
    9.2010   -0.0690   22.5880 C   0  0  0  0  0  0  0  0  0  0  0  0
    7.8740   -0.1120   22.1220 N   0  0  0  0  0  0  0  0  0  0  0  0
    7.5150    0.1270   20.8260 C   0  0  0  0  0  0  0  0  0  0  0  0
    8.3010    0.2430   19.9070 O   0  0  0  0  0  0  0  0  0  0  0  0
    6.1660    0.2650   20.6680 N   0  0  0  0  0  0  0  0  0  0  0  0
    5.5350    0.7820   19.5130 C   0  0  0  0  0  0  0  0  0  0  0  0
    4.5660    1.7800   19.6690 C   0  0  0  0  0  0  0  0  0  0  0  0
    4.0580    2.3770   18.5090 C   0  0  0  0  0  0  0  0  0  0  0  0
    4.5370    1.9730   17.2550 C   0  0  0  0  0  0  0  0  0  0  0  0
    5.4310    0.9700   17.0930 N   0  0  0  0  0  0  0  0  0  0  0  0
    5.9290    0.4040   18.2100 C   0  0  0  0  0  0  0  0  0  0  0  0
    9.5620    0.8880   23.5460 C   0  0  0  0  0  0  0  0  0  0  0  0
   10.9070    1.0340   23.9150 C   0  0  0  0  0  0  0  0  0  0  0  0
  1  2  1  0
  2  3  1  0
  3  4  1  0
  4  5  1  0
  5  6  2  0
  5  7  1  0
  7  8  1  0
  8 23  2  0
  8  9  1  0
  9 10  2  0
 10 11  1  0
 11 12  1  0
 11 22  2  0
 12 13  1  0
 13 14  2  0
 13 15  1  0
 15 16  1  0
 16 17  2  0
 16 21  1  0
 17 18  1  0
 18 19  2  0
 19 20  1  0
 20 21  2  0
 22 23  1  0
M  END
>  <original SMILES>  (179) 
CCCOC(=O)Cc1ccc(NC(=O)Nc2cccnc2)cc1

>  <AutoDock Predicted Affinity>  (179) 
-5.65717

>  <ref_pdb>  (179) 
x0434_0

>  <ref_mols>  (179) 
x0434_0

>  <creator>  (179) 
Will Poole

>  <energy minimised>  (179) 
True

$$$$
WPC0913_minimised.pdb
     RDKit          3D

 20 21  0  0  0  0  0  0  0  0999 V2000
   12.9020    4.8570   22.3460 C   0  0  0  0  0  0  0  0  0  0  0  0
   12.6910    3.4290   22.8800 C   0  0  0  0  0  0  0  0  0  0  0  0
   13.9130    2.5230   22.6180 C   0  0  0  0  0  0  0  0  0  0  0  0
   13.8200    0.9110   23.5070 S   0  0  0  0  0  0  0  0  0  0  0  0
   12.1690    0.3510   23.1880 C   0  0  0  0  0  0  0  0  0  0  0  0
   11.9250   -0.4640   22.0760 C   0  0  0  0  0  0  0  0  0  0  0  0
   10.6060   -0.8110   21.7530 C   0  0  0  0  0  0  0  0  0  0  0  0
    9.5360   -0.3230   22.5200 C   0  0  0  0  0  0  0  0  0  0  0  0
    8.2100   -0.4710   22.0640 N   0  0  0  0  0  0  0  0  0  0  0  0
    7.7960   -0.1260   20.8050 C   0  0  0  0  0  0  0  0  0  0  0  0
    8.5460    0.1590   19.8900 O   0  0  0  0  0  0  0  0  0  0  0  0
    6.4360   -0.0800   20.6760 N   0  0  0  0  0  0  0  0  0  0  0  0
    5.7650    0.4930   19.5710 C   0  0  0  0  0  0  0  0  0  0  0  0
    4.7990    1.4800   19.8010 C   0  0  0  0  0  0  0  0  0  0  0  0
    4.2690    2.1420   18.6870 C   0  0  0  0  0  0  0  0  0  0  0  0
    4.7270    1.8140   17.4030 C   0  0  0  0  0  0  0  0  0  0  0  0
    5.6200    0.8260   17.1680 N   0  0  0  0  0  0  0  0  0  0  0  0
    6.1370    0.1960   18.2420 C   0  0  0  0  0  0  0  0  0  0  0  0
    9.7890    0.4310   23.6750 C   0  0  0  0  0  0  0  0  0  0  0  0
   11.1090    0.7600   24.0140 C   0  0  0  0  0  0  0  0  0  0  0  0
  1  2  1  0
  2  3  1  0
  3  4  1  0
  4  5  1  0
  5 20  2  0
  5  6  1  0
  6  7  2  0
  7  8  1  0
  8  9  1  0
  8 19  2  0
  9 10  1  0
 10 11  2  0
 10 12  1  0
 12 13  1  0
 13 14  2  0
 13 18  1  0
 14 15  1  0
 15 16  2  0
 16 17  1  0
 17 18  2  0
 19 20  1  0
M  END
>  <original SMILES>  (180) 
CCCSc1ccc(NC(=O)Nc2cccnc2)cc1

>  <AutoDock Predicted Affinity>  (180) 
-5.26121

>  <ref_pdb>  (180) 
x0434_0

>  <ref_mols>  (180) 
x0434_0

>  <creator>  (180) 
Will Poole

>  <energy minimised>  (180) 
True

$$$$
WPC0798_minimised.pdb
     RDKit          3D

 19 20  0  0  0  0  0  0  0  0999 V2000
   12.3430    2.9380   23.1530 C   0  0  0  0  0  0  0  0  0  0  0  0
   13.3840    1.8180   22.9150 C   0  0  0  0  0  0  0  0  0  0  0  0
   13.1160    0.5190   23.6940 C   0  0  0  0  0  0  0  0  0  0  0  0
   11.7230   -0.0050   23.4130 C   0  0  0  0  0  0  0  0  0  0  0  0
   11.4970   -0.7830   22.2670 C   0  0  0  0  0  0  0  0  0  0  0  0
   10.1850   -1.0720   21.8740 C   0  0  0  0  0  0  0  0  0  0  0  0
    9.1030   -0.5570   22.6010 C   0  0  0  0  0  0  0  0  0  0  0  0
    7.8090   -0.5770   22.0460 N   0  0  0  0  0  0  0  0  0  0  0  0
    7.5180   -0.1480   20.7760 C   0  0  0  0  0  0  0  0  0  0  0  0
    8.3420    0.0860   19.9110 O   0  0  0  0  0  0  0  0  0  0  0  0
    6.1780    0.0340   20.5850 N   0  0  0  0  0  0  0  0  0  0  0  0
    5.5910    0.6490   19.4560 C   0  0  0  0  0  0  0  0  0  0  0  0
    4.6200    1.6390   19.6480 C   0  0  0  0  0  0  0  0  0  0  0  0
    4.1410    2.3060   18.5150 C   0  0  0  0  0  0  0  0  0  0  0  0
    4.6530    1.9830   17.2510 C   0  0  0  0  0  0  0  0  0  0  0  0
    5.5580    0.9980   17.0520 N   0  0  0  0  0  0  0  0  0  0  0  0
    6.0250    0.3600   18.1440 C   0  0  0  0  0  0  0  0  0  0  0  0
    9.3260    0.1270   23.8030 C   0  0  0  0  0  0  0  0  0  0  0  0
   10.6400    0.3930   24.2180 C   0  0  0  0  0  0  0  0  0  0  0  0
  1  2  1  0
  2  3  1  0
  3  4  1  0
  4 19  2  0
  4  5  1  0
  5  6  2  0
  6  7  1  0
  7  8  1  0
  7 18  2  0
  8  9  1  0
  9 10  2  0
  9 11  1  0
 11 12  1  0
 12 13  2  0
 12 17  1  0
 13 14  1  0
 14 15  2  0
 15 16  1  0
 16 17  2  0
 18 19  1  0
M  END
>  <original SMILES>  (181) 
CCCc1ccc(NC(=O)Nc2cccnc2)cc1

>  <AutoDock Predicted Affinity>  (181) 
-5.51126

>  <ref_pdb>  (181) 
x0434_0

>  <ref_mols>  (181) 
x0434_0

>  <creator>  (181) 
Will Poole

>  <energy minimised>  (181) 
True

$$$$
WPC0637_minimised.pdb
     RDKit          3D

 22 23  0  0  0  0  0  0  0  0999 V2000
   11.5960    5.7260   24.4010 C   0  0  0  0  0  0  0  0  0  0  0  0
   11.7950    5.1390   22.9940 C   0  0  0  0  0  0  0  0  0  0  0  0
   12.0740    3.7050   23.0450 N   0  0  0  0  0  0  0  0  0  0  0  0
   13.3290    3.1800   23.2390 C   0  0  0  0  0  0  0  0  0  0  0  0
   14.2930    3.9130   23.3770 O   0  0  0  0  0  0  0  0  0  0  0  0
   13.4270    1.6480   23.3620 C   0  0  0  0  0  0  0  0  0  0  0  0
   12.1140    0.9050   23.1560 C   0  0  0  0  0  0  0  0  0  0  0  0
   11.9560    0.0760   22.0360 C   0  0  0  0  0  0  0  0  0  0  0  0
   10.7010   -0.4720   21.7510 C   0  0  0  0  0  0  0  0  0  0  0  0
    9.5940   -0.1690   22.5590 C   0  0  0  0  0  0  0  0  0  0  0  0
    8.2860   -0.4550   22.1130 N   0  0  0  0  0  0  0  0  0  0  0  0
    7.8250   -0.1350   20.8620 C   0  0  0  0  0  0  0  0  0  0  0  0
    8.5380    0.1940   19.9330 O   0  0  0  0  0  0  0  0  0  0  0  0
    6.4630   -0.1540   20.7510 N   0  0  0  0  0  0  0  0  0  0  0  0
    5.7660    0.4100   19.6560 C   0  0  0  0  0  0  0  0  0  0  0  0
    4.8320    1.4260   19.8910 C   0  0  0  0  0  0  0  0  0  0  0  0
    4.2920    2.0830   18.7770 C   0  0  0  0  0  0  0  0  0  0  0  0
    4.7070    1.7190   17.4880 C   0  0  0  0  0  0  0  0  0  0  0  0
    5.5720    0.7070   17.2510 N   0  0  0  0  0  0  0  0  0  0  0  0
    6.1010    0.0840   18.3230 C   0  0  0  0  0  0  0  0  0  0  0  0
    9.7760    0.5610   23.7420 C   0  0  0  0  0  0  0  0  0  0  0  0
   11.0410    1.0810   24.0520 C   0  0  0  0  0  0  0  0  0  0  0  0
  1  2  1  0
  2  3  1  0
  3  4  1  0
  4  5  2  0
  4  6  1  0
  6  7  1  0
  7 22  2  0
  7  8  1  0
  8  9  2  0
  9 10  1  0
 10 11  1  0
 10 21  2  0
 11 12  1  0
 12 13  2  0
 12 14  1  0
 14 15  1  0
 15 16  2  0
 15 20  1  0
 16 17  1  0
 17 18  2  0
 18 19  1  0
 19 20  2  0
 21 22  1  0
M  END
>  <original SMILES>  (182) 
CCNC(=O)Cc1ccc(NC(=O)Nc2cccnc2)cc1

>  <AutoDock Predicted Affinity>  (182) 
-6.0836

>  <ref_pdb>  (182) 
x0434_0

>  <ref_mols>  (182) 
x0434_0

>  <creator>  (182) 
Will Poole

>  <energy minimised>  (182) 
True

$$$$
WPC0573_minimised.pdb
     RDKit          3D

 23 24  0  0  0  0  0  0  0  0999 V2000
   14.1980    6.0030   21.8190 C   0  0  0  0  0  0  0  0  0  0  0  0
   13.7610    4.7570   21.0410 C   0  0  0  0  0  0  0  0  0  0  0  0
   14.2540    3.5240   21.6560 N   0  0  0  0  0  0  0  0  0  0  0  0
   13.5920    2.8750   22.6590 C   0  0  0  0  0  0  0  0  0  0  0  0
   12.3800    3.5700   23.5650 S   0  0  0  0  0  0  0  0  0  0  0  0
   14.0810    1.6010   22.7880 N   0  0  0  0  0  0  0  0  0  0  0  0
   13.5340    0.5760   23.6790 C   0  0  0  0  0  0  0  0  0  0  0  0
   12.1190    0.1490   23.3320 C   0  0  0  0  0  0  0  0  0  0  0  0
   11.8780   -0.7640   22.2920 C   0  0  0  0  0  0  0  0  0  0  0  0
   10.5600   -1.0550   21.9090 C   0  0  0  0  0  0  0  0  0  0  0  0
    9.4820   -0.4380   22.5610 C   0  0  0  0  0  0  0  0  0  0  0  0
    8.1700   -0.5530   22.0620 N   0  0  0  0  0  0  0  0  0  0  0  0
    7.8060   -0.2430   20.7800 C   0  0  0  0  0  0  0  0  0  0  0  0
    8.5780   -0.1030   19.8520 O   0  0  0  0  0  0  0  0  0  0  0  0
    6.4600   -0.0510   20.6540 N   0  0  0  0  0  0  0  0  0  0  0  0
    5.8190    0.5450   19.5420 C   0  0  0  0  0  0  0  0  0  0  0  0
    4.8710    1.5500   19.7690 C   0  0  0  0  0  0  0  0  0  0  0  0
    4.3290    2.1980   18.6520 C   0  0  0  0  0  0  0  0  0  0  0  0
    4.7590    1.8400   17.3670 C   0  0  0  0  0  0  0  0  0  0  0  0
    5.6400    0.8400   17.1370 N   0  0  0  0  0  0  0  0  0  0  0  0
    6.1690    0.2230   18.2130 C   0  0  0  0  0  0  0  0  0  0  0  0
    9.7170    0.3980   23.6580 C   0  0  0  0  0  0  0  0  0  0  0  0
   11.0320    0.6830   24.0490 C   0  0  0  0  0  0  0  0  0  0  0  0
  1  2  1  0
  2  3  1  0
  3  4  1  0
  4  5  2  0
  4  6  1  0
  6  7  1  0
  7  8  1  0
  8 23  2  0
  8  9  1  0
  9 10  2  0
 10 11  1  0
 11 12  1  0
 11 22  2  0
 12 13  1  0
 13 14  2  0
 13 15  1  0
 15 16  1  0
 16 17  2  0
 16 21  1  0
 17 18  1  0
 18 19  2  0
 19 20  1  0
 20 21  2  0
 22 23  1  0
M  END
>  <original SMILES>  (183) 
CCNC(=S)NCc1ccc(NC(=O)Nc2cccnc2)cc1

>  <AutoDock Predicted Affinity>  (183) 
-6.15208

>  <ref_pdb>  (183) 
x0434_0

>  <ref_mols>  (183) 
x0434_0

>  <creator>  (183) 
Will Poole

>  <energy minimised>  (183) 
True

$$$$
WPC0497_minimised.pdb
     RDKit          3D

 21 22  0  0  0  0  0  0  0  0999 V2000
   13.1700    5.1700   21.6780 C   0  0  0  0  0  0  0  0  0  0  0  0
   13.8090    4.6830   22.9790 C   0  0  0  0  0  0  0  0  0  0  0  0
   13.3590    3.3280   23.3080 N   0  0  0  0  0  0  0  0  0  0  0  0
   14.1140    2.2410   22.6650 C   0  0  0  0  0  0  0  0  0  0  0  0
   13.7660    0.8690   23.2730 C   0  0  0  0  0  0  0  0  0  0  0  0
   12.3220    0.4730   23.0370 C   0  0  0  0  0  0  0  0  0  0  0  0
   11.9980   -0.4010   21.9870 C   0  0  0  0  0  0  0  0  0  0  0  0
   10.6560   -0.7040   21.7260 C   0  0  0  0  0  0  0  0  0  0  0  0
    9.6340   -0.1190   22.4880 C   0  0  0  0  0  0  0  0  0  0  0  0
    8.2880   -0.2570   22.0900 N   0  0  0  0  0  0  0  0  0  0  0  0
    7.8370    0.0170   20.8260 C   0  0  0  0  0  0  0  0  0  0  0  0
    8.5630    0.2520   19.8790 O   0  0  0  0  0  0  0  0  0  0  0  0
    6.4740    0.0480   20.7270 N   0  0  0  0  0  0  0  0  0  0  0  0
    5.7750    0.5670   19.6110 C   0  0  0  0  0  0  0  0  0  0  0  0
    4.8020    1.5510   19.8220 C   0  0  0  0  0  0  0  0  0  0  0  0
    4.2450    2.1660   18.6940 C   0  0  0  0  0  0  0  0  0  0  0  0
    4.6850    1.7970   17.4150 C   0  0  0  0  0  0  0  0  0  0  0  0
    5.5820    0.8080   17.1990 N   0  0  0  0  0  0  0  0  0  0  0  0
    6.1240    0.2230   18.2870 C   0  0  0  0  0  0  0  0  0  0  0  0
    9.9560    0.7010   23.5770 C   0  0  0  0  0  0  0  0  0  0  0  0
   11.3000    0.9900   23.8560 C   0  0  0  0  0  0  0  0  0  0  0  0
  1  2  1  0
  2  3  1  0
  3  4  1  0
  4  5  1  0
  5  6  1  0
  6 21  2  0
  6  7  1  0
  7  8  2  0
  8  9  1  0
  9 10  1  0
  9 20  2  0
 10 11  1  0
 11 12  2  0
 11 13  1  0
 13 14  1  0
 14 15  2  0
 14 19  1  0
 15 16  1  0
 16 17  2  0
 17 18  1  0
 18 19  2  0
 20 21  1  0
M  END
>  <original SMILES>  (184) 
CCNCCc1ccc(NC(=O)Nc2cccnc2)cc1

>  <AutoDock Predicted Affinity>  (184) 
-5.789793

>  <ref_pdb>  (184) 
x0434_0

>  <ref_mols>  (184) 
x0434_0

>  <creator>  (184) 
Will Poole

>  <energy minimised>  (184) 
True

$$$$
WPC0375_minimised.pdb
     RDKit          3D

 20 21  0  0  0  0  0  0  0  0999 V2000
   12.5310    4.3190   23.5460 C   0  0  0  0  0  0  0  0  0  0  0  0
   12.7700    3.4060   22.3340 C   0  0  0  0  0  0  0  0  0  0  0  0
   13.7670    2.3430   22.5960 N   0  0  0  0  0  0  0  0  0  0  0  0
   13.3880    1.2490   23.5070 C   0  0  0  0  0  0  0  0  0  0  0  0
   12.0480    0.6270   23.1880 C   0  0  0  0  0  0  0  0  0  0  0  0
   11.9120   -0.2170   22.0760 C   0  0  0  0  0  0  0  0  0  0  0  0
   10.6460   -0.7050   21.7280 C   0  0  0  0  0  0  0  0  0  0  0  0
    9.5140   -0.3270   22.4670 C   0  0  0  0  0  0  0  0  0  0  0  0
    8.2170   -0.5970   21.9850 N   0  0  0  0  0  0  0  0  0  0  0  0
    7.7990   -0.2660   20.7250 C   0  0  0  0  0  0  0  0  0  0  0  0
    8.5420    0.0240   19.8060 O   0  0  0  0  0  0  0  0  0  0  0  0
    6.4370   -0.2220   20.6060 N   0  0  0  0  0  0  0  0  0  0  0  0
    5.7640    0.3940   19.5250 C   0  0  0  0  0  0  0  0  0  0  0  0
    4.8150    1.3880   19.7910 C   0  0  0  0  0  0  0  0  0  0  0  0
    4.2870    2.0920   18.7010 C   0  0  0  0  0  0  0  0  0  0  0  0
    4.7330    1.7990   17.4040 C   0  0  0  0  0  0  0  0  0  0  0  0
    5.6130    0.8080   17.1350 N   0  0  0  0  0  0  0  0  0  0  0  0
    6.1240    0.1350   18.1850 C   0  0  0  0  0  0  0  0  0  0  0  0
    9.6590    0.4580   23.6180 C   0  0  0  0  0  0  0  0  0  0  0  0
   10.9270    0.9280   23.9840 C   0  0  0  0  0  0  0  0  0  0  0  0
  1  2  1  0
  2  3  1  0
  3  4  1  0
  4  5  1  0
  5 20  2  0
  5  6  1  0
  6  7  2  0
  7  8  1  0
  8  9  1  0
  8 19  2  0
  9 10  1  0
 10 11  2  0
 10 12  1  0
 12 13  1  0
 13 14  2  0
 13 18  1  0
 14 15  1  0
 15 16  2  0
 16 17  1  0
 17 18  2  0
 19 20  1  0
M  END
>  <original SMILES>  (185) 
CCNCc1ccc(NC(=O)Nc2cccnc2)cc1

>  <AutoDock Predicted Affinity>  (185) 
-5.695588

>  <ref_pdb>  (185) 
x0434_0

>  <ref_mols>  (185) 
x0434_0

>  <creator>  (185) 
Will Poole

>  <energy minimised>  (185) 
True

$$$$
WPC0642_minimised.pdb
     RDKit          3D

 24 25  0  0  1  0  0  0  0  0999 V2000
   14.0070    5.9030   21.4490 C   0  0  0  0  0  0  0  0  0  0  0  0
   12.9680    5.0760   22.2400 C   0  0  0  0  0  0  0  0  0  0  0  0
   13.2760    3.6680   22.1430 O   0  0  0  0  0  0  0  0  0  0  0  0
   14.3830    3.2080   22.7950 C   0  0  0  0  0  0  0  0  0  0  0  0
   15.0890    3.9500   23.4590 O   0  0  0  0  0  0  0  0  0  0  0  0
   14.5690    1.6650   22.7480 C   0  0  2  0  0  0  0  0  0  0  0  0
   14.4590    1.0860   21.3270 C   0  0  0  0  0  0  0  0  0  0  0  0
   13.6840    0.9330   23.7000 N   0  0  0  0  0  0  0  0  0  0  0  0
   12.3530    0.6780   23.4030 C   0  0  0  0  0  0  0  0  0  0  0  0
   12.0000   -0.3590   22.5230 C   0  0  0  0  0  0  0  0  0  0  0  0
   10.6610   -0.5560   22.1600 C   0  0  0  0  0  0  0  0  0  0  0  0
    9.6660    0.2750   22.6920 C   0  0  0  0  0  0  0  0  0  0  0  0
    8.3400    0.1650   22.2350 N   0  0  0  0  0  0  0  0  0  0  0  0
    7.9630    0.3070   20.9280 C   0  0  0  0  0  0  0  0  0  0  0  0
    8.7380    0.4230   19.9980 O   0  0  0  0  0  0  0  0  0  0  0  0
    6.6060    0.3430   20.7750 N   0  0  0  0  0  0  0  0  0  0  0  0
    5.9270    0.7780   19.6140 C   0  0  0  0  0  0  0  0  0  0  0  0
    4.9060    1.7240   19.7580 C   0  0  0  0  0  0  0  0  0  0  0  0
    4.3390    2.2510   18.5930 C   0  0  0  0  0  0  0  0  0  0  0  0
    4.8170    1.8380   17.3430 C   0  0  0  0  0  0  0  0  0  0  0  0
    5.7570    0.8780   17.1910 N   0  0  0  0  0  0  0  0  0  0  0  0
    6.3140    0.3790   18.3150 C   0  0  0  0  0  0  0  0  0  0  0  0
   10.0030    1.2700   23.6220 C   0  0  0  0  0  0  0  0  0  0  0  0
   11.3470    1.4690   23.9770 C   0  0  0  0  0  0  0  0  0  0  0  0
  1  2  1  0
  2  3  1  0
  3  4  1  0
  4  5  2  0
  4  6  1  0
  6  7  1  6
  6  8  1  0
  8  9  1  0
  9 24  2  0
  9 10  1  0
 10 11  2  0
 11 12  1  0
 12 13  1  0
 12 23  2  0
 13 14  1  0
 14 15  2  0
 14 16  1  0
 16 17  1  0
 17 18  2  0
 17 22  1  0
 18 19  1  0
 19 20  2  0
 20 21  1  0
 21 22  2  0
 23 24  1  0
M  END
>  <original SMILES>  (186) 
CCOC(=O)C(C)Nc1ccc(NC(=O)Nc2cccnc2)cc1

>  <AutoDock Predicted Affinity>  (186) 
-6.1539

>  <ref_pdb>  (186) 
x0434_0

>  <ref_mols>  (186) 
x0434_0

>  <creator>  (186) 
Will Poole

>  <energy minimised>  (186) 
True

$$$$
WPC0529_minimised.pdb
     RDKit          3D

 24 25  0  0  0  0  0  0  0  0999 V2000
   12.4400    6.4940   24.8590 C   0  0  0  0  0  0  0  0  0  0  0  0
   11.5340    5.4370   24.1900 C   0  0  0  0  0  0  0  0  0  0  0  0
   12.3320    4.3150   23.7630 O   0  0  0  0  0  0  0  0  0  0  0  0
   13.1490    4.4370   22.6770 C   0  0  0  0  0  0  0  0  0  0  0  0
   13.3000    5.4730   22.0540 O   0  0  0  0  0  0  0  0  0  0  0  0
   13.9720    3.2350   22.3630 C   0  0  0  0  0  0  0  0  0  0  0  0
   13.9050    1.9710   22.8550 C   0  0  0  0  0  0  0  0  0  0  0  0
   12.9650    1.3890   23.8920 C   0  0  0  0  0  0  0  0  0  0  0  0
   11.6500    0.8660   23.3600 C   0  0  0  0  0  0  0  0  0  0  0  0
   11.6030   -0.2160   22.4630 C   0  0  0  0  0  0  0  0  0  0  0  0
   10.3640   -0.6800   21.9930 C   0  0  0  0  0  0  0  0  0  0  0  0
    9.1780   -0.0780   22.4410 C   0  0  0  0  0  0  0  0  0  0  0  0
    7.9310   -0.4360   21.9050 N   0  0  0  0  0  0  0  0  0  0  0  0
    7.5860   -0.1960   20.6090 C   0  0  0  0  0  0  0  0  0  0  0  0
    8.3780    0.0010   19.7070 O   0  0  0  0  0  0  0  0  0  0  0  0
    6.2330   -0.1120   20.4540 N   0  0  0  0  0  0  0  0  0  0  0  0
    5.5950    0.5140   19.3620 C   0  0  0  0  0  0  0  0  0  0  0  0
    4.6390    1.5050   19.6150 C   0  0  0  0  0  0  0  0  0  0  0  0
    4.1240    2.2050   18.5180 C   0  0  0  0  0  0  0  0  0  0  0  0
    4.5860    1.9070   17.2280 C   0  0  0  0  0  0  0  0  0  0  0  0
    5.4790    0.9230   16.9740 N   0  0  0  0  0  0  0  0  0  0  0  0
    5.9820    0.2560   18.0310 C   0  0  0  0  0  0  0  0  0  0  0  0
    9.2220    0.9750   23.3620 C   0  0  0  0  0  0  0  0  0  0  0  0
   10.4560    1.4480   23.8200 C   0  0  0  0  0  0  0  0  0  0  0  0
  1  2  1  0
  2  3  1  0
  3  4  1  0
  4  5  2  0
  4  6  1  0
  6  7  2  0
  7  8  1  0
  8  9  1  0
  9 24  2  0
  9 10  1  0
 10 11  2  0
 11 12  1  0
 12 13  1  0
 12 23  2  0
 13 14  1  0
 14 15  2  0
 14 16  1  0
 16 17  1  0
 17 18  2  0
 17 22  1  0
 18 19  1  0
 19 20  2  0
 20 21  1  0
 21 22  2  0
 23 24  1  0
M  END
>  <original SMILES>  (187) 
CCOC(=O)C=CCc1ccc(NC(=O)Nc2cccnc2)cc1

>  <AutoDock Predicted Affinity>  (187) 
-6.02674

>  <ref_pdb>  (187) 
x0434_0

>  <ref_mols>  (187) 
x0434_0

>  <creator>  (187) 
Will Poole

>  <energy minimised>  (187) 
True

$$$$
WPC0539_minimised.pdb
     RDKit          3D

 23 24  0  0  0  0  0  0  0  0999 V2000
   11.5880    4.9370   23.3040 C   0  0  0  0  0  0  0  0  0  0  0  0
   12.5290    4.9060   22.0850 C   0  0  0  0  0  0  0  0  0  0  0  0
   13.0880    3.5930   21.9550 O   0  0  0  0  0  0  0  0  0  0  0  0
   14.1500    3.2590   22.7290 C   0  0  0  0  0  0  0  0  0  0  0  0
   14.7590    4.0640   23.4140 O   0  0  0  0  0  0  0  0  0  0  0  0
   14.6230    1.8370   22.4500 C   0  0  0  0  0  0  0  0  0  0  0  0
   13.9700    0.7430   23.3180 C   0  0  0  0  0  0  0  0  0  0  0  0
   12.5010    0.5260   23.0250 C   0  0  0  0  0  0  0  0  0  0  0  0
   12.1150   -0.3940   22.0370 C   0  0  0  0  0  0  0  0  0  0  0  0
   10.7550   -0.6070   21.7770 C   0  0  0  0  0  0  0  0  0  0  0  0
    9.7780    0.1070   22.4860 C   0  0  0  0  0  0  0  0  0  0  0  0
    8.4180   -0.0190   22.1350 N   0  0  0  0  0  0  0  0  0  0  0  0
    7.9320    0.1700   20.8710 C   0  0  0  0  0  0  0  0  0  0  0  0
    8.6360    0.3620   19.8990 O   0  0  0  0  0  0  0  0  0  0  0  0
    6.5670    0.1630   20.7960 N   0  0  0  0  0  0  0  0  0  0  0  0
    5.8330    0.6080   19.6710 C   0  0  0  0  0  0  0  0  0  0  0  0
    4.8340    1.5700   19.8610 C   0  0  0  0  0  0  0  0  0  0  0  0
    4.2390    2.1220   18.7210 C   0  0  0  0  0  0  0  0  0  0  0  0
    4.6670    1.7130   17.4500 C   0  0  0  0  0  0  0  0  0  0  0  0
    5.5860    0.7410   17.2550 N   0  0  0  0  0  0  0  0  0  0  0  0
    6.1660    0.2170   18.3550 C   0  0  0  0  0  0  0  0  0  0  0  0
   10.1590    1.0070   23.4910 C   0  0  0  0  0  0  0  0  0  0  0  0
   11.5200    1.2130   23.7630 C   0  0  0  0  0  0  0  0  0  0  0  0
  1  2  1  0
  2  3  1  0
  3  4  1  0
  4  5  2  0
  4  6  1  0
  6  7  1  0
  7  8  1  0
  8 23  2  0
  8  9  1  0
  9 10  2  0
 10 11  1  0
 11 12  1  0
 11 22  2  0
 12 13  1  0
 13 14  2  0
 13 15  1  0
 15 16  1  0
 16 17  2  0
 16 21  1  0
 17 18  1  0
 18 19  2  0
 19 20  1  0
 20 21  2  0
 22 23  1  0
M  END
>  <original SMILES>  (188) 
CCOC(=O)CCc1ccc(NC(=O)Nc2cccnc2)cc1

>  <AutoDock Predicted Affinity>  (188) 
-6.04651

>  <ref_pdb>  (188) 
x0434_0

>  <ref_mols>  (188) 
x0434_0

>  <creator>  (188) 
Will Poole

>  <energy minimised>  (188) 
True

$$$$
WPC0547_minimised.pdb
     RDKit          3D

 23 24  0  0  0  0  0  0  0  0999 V2000
    8.5750    4.0320   22.4020 C   0  0  0  0  0  0  0  0  0  0  0  0
    9.2650    5.4060   22.3040 C   0  0  0  0  0  0  0  0  0  0  0  0
   10.5870    5.3310   22.8860 O   0  0  0  0  0  0  0  0  0  0  0  0
   11.5930    4.6950   22.2140 C   0  0  0  0  0  0  0  0  0  0  0  0
   11.5050    4.2820   21.0710 O   0  0  0  0  0  0  0  0  0  0  0  0
   12.8780    4.6660   23.0350 C   0  0  0  0  0  0  0  0  0  0  0  0
   13.7680    3.0510   22.8590 S   0  0  0  0  0  0  0  0  0  0  0  0
   12.4680    1.8420   23.0050 C   0  0  0  0  0  0  0  0  0  0  0  0
   12.4340    0.7880   22.0810 C   0  0  0  0  0  0  0  0  0  0  0  0
   11.2690    0.0210   21.9410 C   0  0  0  0  0  0  0  0  0  0  0  0
   10.1500    0.2970   22.7430 C   0  0  0  0  0  0  0  0  0  0  0  0
    8.8810   -0.1840   22.3570 N   0  0  0  0  0  0  0  0  0  0  0  0
    8.2970    0.1780   21.1680 C   0  0  0  0  0  0  0  0  0  0  0  0
    8.8770    0.8120   20.3080 O   0  0  0  0  0  0  0  0  0  0  0  0
    6.9870   -0.1920   21.0260 N   0  0  0  0  0  0  0  0  0  0  0  0
    6.1920    0.2130   19.9260 C   0  0  0  0  0  0  0  0  0  0  0  0
    5.1240    1.0910   20.1400 C   0  0  0  0  0  0  0  0  0  0  0  0
    4.4620    1.5980   19.0160 C   0  0  0  0  0  0  0  0  0  0  0  0
    4.8850    1.2230   17.7330 C   0  0  0  0  0  0  0  0  0  0  0  0
    5.8860    0.3430   17.5150 N   0  0  0  0  0  0  0  0  0  0  0  0
    6.5420   -0.1230   18.5990 C   0  0  0  0  0  0  0  0  0  0  0  0
   10.2420    1.2390   23.7780 C   0  0  0  0  0  0  0  0  0  0  0  0
   11.4010    2.0190   23.9050 C   0  0  0  0  0  0  0  0  0  0  0  0
  1  2  1  0
  2  3  1  0
  3  4  1  0
  4  5  2  0
  4  6  1  0
  6  7  1  0
  7  8  1  0
  8 23  2  0
  8  9  1  0
  9 10  2  0
 10 11  1  0
 11 12  1  0
 11 22  2  0
 12 13  1  0
 13 14  2  0
 13 15  1  0
 15 16  1  0
 16 17  2  0
 16 21  1  0
 17 18  1  0
 18 19  2  0
 19 20  1  0
 20 21  2  0
 22 23  1  0
M  END
>  <original SMILES>  (189) 
CCOC(=O)CSc1ccc(NC(=O)Nc2cccnc2)cc1

>  <AutoDock Predicted Affinity>  (189) 
-5.537795

>  <ref_pdb>  (189) 
x0434_0

>  <ref_mols>  (189) 
x0434_0

>  <creator>  (189) 
Will Poole

>  <energy minimised>  (189) 
True

$$$$
WPC0513_minimised.pdb
     RDKit          3D

 22 23  0  0  0  0  0  0  0  0999 V2000
   13.4680    4.4850   21.4150 C   0  0  0  0  0  0  0  0  0  0  0  0
   13.7140    4.3030   22.9220 C   0  0  0  0  0  0  0  0  0  0  0  0
   13.2740    2.9970   23.3430 O   0  0  0  0  0  0  0  0  0  0  0  0
   13.9810    1.8840   22.9850 C   0  0  0  0  0  0  0  0  0  0  0  0
   15.0230    1.9010   22.3590 O   0  0  0  0  0  0  0  0  0  0  0  0
   13.4430    0.6080   23.6200 C   0  0  0  0  0  0  0  0  0  0  0  0
   11.9900    0.3130   23.2890 C   0  0  0  0  0  0  0  0  0  0  0  0
   11.6640   -0.6970   22.3680 C   0  0  0  0  0  0  0  0  0  0  0  0
   10.3280   -0.9080   22.0020 C   0  0  0  0  0  0  0  0  0  0  0  0
    9.3130   -0.1300   22.5770 C   0  0  0  0  0  0  0  0  0  0  0  0
    7.9900   -0.2270   22.1090 N   0  0  0  0  0  0  0  0  0  0  0  0
    7.6220    0.0280   20.8170 C   0  0  0  0  0  0  0  0  0  0  0  0
    8.4030    0.1800   19.8980 O   0  0  0  0  0  0  0  0  0  0  0  0
    6.2700    0.1470   20.6650 N   0  0  0  0  0  0  0  0  0  0  0  0
    5.6310    0.6870   19.5260 C   0  0  0  0  0  0  0  0  0  0  0  0
    4.6650    1.6840   19.7070 C   0  0  0  0  0  0  0  0  0  0  0  0
    4.1460    2.3010   18.5630 C   0  0  0  0  0  0  0  0  0  0  0  0
    4.6130    1.9180   17.2980 C   0  0  0  0  0  0  0  0  0  0  0  0
    5.5070    0.9200   17.1110 N   0  0  0  0  0  0  0  0  0  0  0  0
    6.0160    0.3350   18.2130 C   0  0  0  0  0  0  0  0  0  0  0  0
    9.6250    0.8250   23.5540 C   0  0  0  0  0  0  0  0  0  0  0  0
   10.9630    1.0470   23.9100 C   0  0  0  0  0  0  0  0  0  0  0  0
  1  2  1  0
  2  3  1  0
  3  4  1  0
  4  5  2  0
  4  6  1  0
  6  7  1  0
  7 22  2  0
  7  8  1  0
  8  9  2  0
  9 10  1  0
 10 11  1  0
 10 21  2  0
 11 12  1  0
 12 13  2  0
 12 14  1  0
 14 15  1  0
 15 16  2  0
 15 20  1  0
 16 17  1  0
 17 18  2  0
 18 19  1  0
 19 20  2  0
 21 22  1  0
M  END
>  <original SMILES>  (190) 
CCOC(=O)Cc1ccc(NC(=O)Nc2cccnc2)cc1

>  <AutoDock Predicted Affinity>  (190) 
-5.98459

>  <ref_pdb>  (190) 
x0434_0

>  <ref_mols>  (190) 
x0434_0

>  <creator>  (190) 
Will Poole

>  <energy minimised>  (190) 
True

$$$$
WPC0936_minimised.pdb
     RDKit          3D

 24 25  0  0  0  0  0  0  0  0999 V2000
   13.7440    5.7250   22.2870 C   0  0  0  0  0  0  0  0  0  0  0  0
   12.6750    4.6860   21.9040 C   0  0  0  0  0  0  0  0  0  0  0  0
   12.7270    3.5700   22.8060 O   0  0  0  0  0  0  0  0  0  0  0  0
   13.7610    2.7050   22.6960 C   0  0  0  0  0  0  0  0  0  0  0  0
   14.7280    2.8110   21.9720 O   0  0  0  0  0  0  0  0  0  0  0  0
   13.4100    1.5600   23.3340 N   0  0  0  0  0  0  0  0  0  0  0  0
   14.1530    0.3100   23.1970 C   0  0  0  0  0  0  0  0  0  0  0  0
   13.4900   -0.8090   24.0030 C   0  0  0  0  0  0  0  0  0  0  0  0
   12.0100   -0.9010   23.6600 C   0  0  0  0  0  0  0  0  0  0  0  0
   11.6270   -1.4580   22.4310 C   0  0  0  0  0  0  0  0  0  0  0  0
   10.2930   -1.3830   22.0090 C   0  0  0  0  0  0  0  0  0  0  0  0
    9.3330   -0.7440   22.8090 C   0  0  0  0  0  0  0  0  0  0  0  0
    8.0230   -0.5360   22.3250 N   0  0  0  0  0  0  0  0  0  0  0  0
    7.7040   -0.0670   21.0770 C   0  0  0  0  0  0  0  0  0  0  0  0
    8.5100    0.1750   20.2000 O   0  0  0  0  0  0  0  0  0  0  0  0
    6.3610    0.1150   20.8990 N   0  0  0  0  0  0  0  0  0  0  0  0
    5.7560    0.6610   19.7420 C   0  0  0  0  0  0  0  0  0  0  0  0
    4.7960    1.6690   19.8870 C   0  0  0  0  0  0  0  0  0  0  0  0
    4.2950    2.2610   18.7210 C   0  0  0  0  0  0  0  0  0  0  0  0
    4.7620    1.8350   17.4690 C   0  0  0  0  0  0  0  0  0  0  0  0
    5.6510    0.8260   17.3170 N   0  0  0  0  0  0  0  0  0  0  0  0
    6.1500    0.2720   18.4410 C   0  0  0  0  0  0  0  0  0  0  0  0
    9.6960   -0.2550   24.0730 C   0  0  0  0  0  0  0  0  0  0  0  0
   11.0310   -0.3350   24.5000 C   0  0  0  0  0  0  0  0  0  0  0  0
  1  2  1  0
  2  3  1  0
  3  4  1  0
  4  5  2  0
  4  6  1  0
  6  7  1  0
  7  8  1  0
  8  9  1  0
  9 24  2  0
  9 10  1  0
 10 11  2  0
 11 12  1  0
 12 13  1  0
 12 23  2  0
 13 14  1  0
 14 15  2  0
 14 16  1  0
 16 17  1  0
 17 18  2  0
 17 22  1  0
 18 19  1  0
 19 20  2  0
 20 21  1  0
 21 22  2  0
 23 24  1  0
M  END
>  <original SMILES>  (191) 
CCOC(=O)NCCc1ccc(NC(=O)Nc2cccnc2)cc1

>  <AutoDock Predicted Affinity>  (191) 
-6.3062

>  <ref_pdb>  (191) 
x0434_0

>  <ref_mols>  (191) 
x0434_0

>  <creator>  (191) 
Will Poole

>  <energy minimised>  (191) 
True

$$$$
WPC0671_minimised.pdb
     RDKit          3D

 23 24  0  0  0  0  0  0  0  0999 V2000
   14.0440    5.8160   22.0010 C   0  0  0  0  0  0  0  0  0  0  0  0
   13.3060    4.7260   21.2130 C   0  0  0  0  0  0  0  0  0  0  0  0
   13.8820    3.4560   21.5260 O   0  0  0  0  0  0  0  0  0  0  0  0
   13.5730    2.8750   22.7050 C   0  0  0  0  0  0  0  0  0  0  0  0
   12.8250    3.3240   23.5520 O   0  0  0  0  0  0  0  0  0  0  0  0
   14.1050    1.6190   22.6850 N   0  0  0  0  0  0  0  0  0  0  0  0
   13.6510    0.5290   23.5440 C   0  0  0  0  0  0  0  0  0  0  0  0
   12.2110    0.1460   23.2560 C   0  0  0  0  0  0  0  0  0  0  0  0
   11.9070   -0.8130   22.2740 C   0  0  0  0  0  0  0  0  0  0  0  0
   10.5700   -1.0650   21.9320 C   0  0  0  0  0  0  0  0  0  0  0  0
    9.5360   -0.3660   22.5700 C   0  0  0  0  0  0  0  0  0  0  0  0
    8.2080   -0.4690   22.1110 N   0  0  0  0  0  0  0  0  0  0  0  0
    7.8180   -0.1690   20.8350 C   0  0  0  0  0  0  0  0  0  0  0  0
    8.5790    0.0030   19.9030 O   0  0  0  0  0  0  0  0  0  0  0  0
    6.4630   -0.0300   20.7130 N   0  0  0  0  0  0  0  0  0  0  0  0
    5.8050    0.5390   19.5970 C   0  0  0  0  0  0  0  0  0  0  0  0
    4.8470    1.5350   19.8150 C   0  0  0  0  0  0  0  0  0  0  0  0
    4.3020    2.1710   18.6930 C   0  0  0  0  0  0  0  0  0  0  0  0
    4.7350    1.8050   17.4110 C   0  0  0  0  0  0  0  0  0  0  0  0
    5.6230    0.8100   17.1880 N   0  0  0  0  0  0  0  0  0  0  0  0
    6.1590    0.2090   18.2700 C   0  0  0  0  0  0  0  0  0  0  0  0
    9.8310    0.5330   23.6020 C   0  0  0  0  0  0  0  0  0  0  0  0
   11.1650    0.7860   23.9460 C   0  0  0  0  0  0  0  0  0  0  0  0
  1  2  1  0
  2  3  1  0
  3  4  1  0
  4  5  2  0
  4  6  1  0
  6  7  1  0
  7  8  1  0
  8 23  2  0
  8  9  1  0
  9 10  2  0
 10 11  1  0
 11 12  1  0
 11 22  2  0
 12 13  1  0
 13 14  2  0
 13 15  1  0
 15 16  1  0
 16 17  2  0
 16 21  1  0
 17 18  1  0
 18 19  2  0
 19 20  1  0
 20 21  2  0
 22 23  1  0
M  END
>  <original SMILES>  (192) 
CCOC(=O)NCc1ccc(NC(=O)Nc2cccnc2)cc1

>  <AutoDock Predicted Affinity>  (192) 
-6.234527

>  <ref_pdb>  (192) 
x0434_0

>  <ref_mols>  (192) 
x0434_0

>  <creator>  (192) 
Will Poole

>  <energy minimised>  (192) 
True

$$$$
WPC0649_minimised.pdb
     RDKit          3D

 23 24  0  0  0  0  0  0  0  0999 V2000
   13.9730    5.6310   21.9770 C   0  0  0  0  0  0  0  0  0  0  0  0
   12.9250    4.6870   21.3690 C   0  0  0  0  0  0  0  0  0  0  0  0
   13.3830    3.3480   21.5450 O   0  0  0  0  0  0  0  0  0  0  0  0
   13.2320    2.7440   22.7470 C   0  0  0  0  0  0  0  0  0  0  0  0
   12.6300    3.2200   23.6960 O   0  0  0  0  0  0  0  0  0  0  0  0
   13.8380    1.5300   22.7270 O   0  0  0  0  0  0  0  0  0  0  0  0
   13.4690    0.5440   23.6900 C   0  0  0  0  0  0  0  0  0  0  0  0
   12.0420    0.1100   23.4080 C   0  0  0  0  0  0  0  0  0  0  0  0
   11.7740   -0.7740   22.3490 C   0  0  0  0  0  0  0  0  0  0  0  0
   10.4480   -1.0380   21.9800 C   0  0  0  0  0  0  0  0  0  0  0  0
    9.3910   -0.4190   22.6620 C   0  0  0  0  0  0  0  0  0  0  0  0
    8.0750   -0.5000   22.1670 N   0  0  0  0  0  0  0  0  0  0  0  0
    7.7200   -0.1780   20.8850 C   0  0  0  0  0  0  0  0  0  0  0  0
    8.5050    0.0040   19.9740 O   0  0  0  0  0  0  0  0  0  0  0  0
    6.3700   -0.0290   20.7350 N   0  0  0  0  0  0  0  0  0  0  0  0
    5.7420    0.5450   19.6060 C   0  0  0  0  0  0  0  0  0  0  0  0
    4.7910    1.5530   19.8040 C   0  0  0  0  0  0  0  0  0  0  0  0
    4.2790    2.1960   18.6710 C   0  0  0  0  0  0  0  0  0  0  0  0
    4.7350    1.8250   17.3980 C   0  0  0  0  0  0  0  0  0  0  0  0
    5.6140    0.8180   17.1940 N   0  0  0  0  0  0  0  0  0  0  0  0
    6.1180    0.2080   18.2860 C   0  0  0  0  0  0  0  0  0  0  0  0
    9.6520    0.3950   23.7720 C   0  0  0  0  0  0  0  0  0  0  0  0
   10.9760    0.6600   24.1460 C   0  0  0  0  0  0  0  0  0  0  0  0
  1  2  1  0
  2  3  1  0
  3  4  1  0
  4  5  2  0
  4  6  1  0
  6  7  1  0
  7  8  1  0
  8 23  2  0
  8  9  1  0
  9 10  2  0
 10 11  1  0
 11 12  1  0
 11 22  2  0
 12 13  1  0
 13 14  2  0
 13 15  1  0
 15 16  1  0
 16 17  2  0
 16 21  1  0
 17 18  1  0
 18 19  2  0
 19 20  1  0
 20 21  2  0
 22 23  1  0
M  END
>  <original SMILES>  (193) 
CCOC(=O)OCc1ccc(NC(=O)Nc2cccnc2)cc1

>  <AutoDock Predicted Affinity>  (193) 
-5.873337

>  <ref_pdb>  (193) 
x0434_0

>  <ref_mols>  (193) 
x0434_0

>  <creator>  (193) 
Will Poole

>  <energy minimised>  (193) 
True

$$$$
WPC0717_minimised.pdb
     RDKit          3D

 24 25  0  0  0  0  0  0  0  0999 V2000
   12.4510    6.7650   25.1550 C   0  0  0  0  0  0  0  0  0  0  0  0
   11.3730    5.7680   24.6930 C   0  0  0  0  0  0  0  0  0  0  0  0
   12.0060    4.6660   24.0200 O   0  0  0  0  0  0  0  0  0  0  0  0
   12.3240    4.9030   22.6340 C   0  0  0  0  0  0  0  0  0  0  0  0
   12.7760    3.5800   21.9910 C   0  0  0  0  0  0  0  0  0  0  0  0
   14.1210    3.1140   22.5840 C   0  0  0  0  0  0  0  0  0  0  0  0
   14.5020    1.7250   22.2640 N   0  0  0  0  0  0  0  0  0  0  0  0
   13.9950    0.6780   23.1730 C   0  0  0  0  0  0  0  0  0  0  0  0
   12.5170    0.3760   23.0280 C   0  0  0  0  0  0  0  0  0  0  0  0
   12.0920   -0.5510   22.0640 C   0  0  0  0  0  0  0  0  0  0  0  0
   10.7240   -0.7710   21.8600 C   0  0  0  0  0  0  0  0  0  0  0  0
    9.7750   -0.0580   22.6060 C   0  0  0  0  0  0  0  0  0  0  0  0
    8.4130   -0.1190   22.2470 N   0  0  0  0  0  0  0  0  0  0  0  0
    7.9460    0.1170   20.9790 C   0  0  0  0  0  0  0  0  0  0  0  0
    8.6610    0.2810   20.0090 O   0  0  0  0  0  0  0  0  0  0  0  0
    6.5810    0.1840   20.8980 N   0  0  0  0  0  0  0  0  0  0  0  0
    5.8670    0.6370   19.7620 C   0  0  0  0  0  0  0  0  0  0  0  0
    4.8870    1.6220   19.9310 C   0  0  0  0  0  0  0  0  0  0  0  0
    4.3000    2.1610   18.7800 C   0  0  0  0  0  0  0  0  0  0  0  0
    4.7130    1.7120   17.5160 C   0  0  0  0  0  0  0  0  0  0  0  0
    5.6120    0.7170   17.3420 N   0  0  0  0  0  0  0  0  0  0  0  0
    6.1900    0.2120   18.4530 C   0  0  0  0  0  0  0  0  0  0  0  0
   10.1950    0.8030   23.6310 C   0  0  0  0  0  0  0  0  0  0  0  0
   11.5660    1.0110   23.8500 C   0  0  0  0  0  0  0  0  0  0  0  0
  1  2  1  0
  2  3  1  0
  3  4  1  0
  4  5  1  0
  5  6  1  0
  6  7  1  0
  7  8  1  0
  8  9  1  0
  9 24  2  0
  9 10  1  0
 10 11  2  0
 11 12  1  0
 12 13  1  0
 12 23  2  0
 13 14  1  0
 14 15  2  0
 14 16  1  0
 16 17  1  0
 17 18  2  0
 17 22  1  0
 18 19  1  0
 19 20  2  0
 20 21  1  0
 21 22  2  0
 23 24  1  0
M  END
>  <original SMILES>  (194) 
CCOCCCNCc1ccc(NC(=O)Nc2cccnc2)cc1

>  <AutoDock Predicted Affinity>  (194) 
-5.73483

>  <ref_pdb>  (194) 
x0434_0

>  <ref_mols>  (194) 
x0434_0

>  <creator>  (194) 
Will Poole

>  <energy minimised>  (194) 
True

$$$$
WPC0397_minimised.pdb
     RDKit          3D

 20 21  0  0  0  0  0  0  0  0999 V2000
   12.6440    4.5780   23.0040 C   0  0  0  0  0  0  0  0  0  0  0  0
   12.1640    3.1880   23.4540 C   0  0  0  0  0  0  0  0  0  0  0  0
   13.2800    2.2810   23.3580 O   0  0  0  0  0  0  0  0  0  0  0  0
   13.1240    0.9320   23.8490 C   0  0  0  0  0  0  0  0  0  0  0  0
   11.7920    0.3390   23.4430 C   0  0  0  0  0  0  0  0  0  0  0  0
   11.6790   -0.3480   22.2270 C   0  0  0  0  0  0  0  0  0  0  0  0
   10.4190   -0.7730   21.7890 C   0  0  0  0  0  0  0  0  0  0  0  0
    9.2710   -0.4790   22.5410 C   0  0  0  0  0  0  0  0  0  0  0  0
    7.9860   -0.6490   21.9880 N   0  0  0  0  0  0  0  0  0  0  0  0
    7.6330   -0.2500   20.7260 C   0  0  0  0  0  0  0  0  0  0  0  0
    8.4160    0.0400   19.8410 O   0  0  0  0  0  0  0  0  0  0  0  0
    6.2810   -0.1470   20.5660 N   0  0  0  0  0  0  0  0  0  0  0  0
    5.6580    0.4920   19.4700 C   0  0  0  0  0  0  0  0  0  0  0  0
    4.7130    1.4970   19.7110 C   0  0  0  0  0  0  0  0  0  0  0  0
    4.2250    2.2070   18.6070 C   0  0  0  0  0  0  0  0  0  0  0  0
    4.7040    1.9090   17.3230 C   0  0  0  0  0  0  0  0  0  0  0  0
    5.5840    0.9120   17.0790 N   0  0  0  0  0  0  0  0  0  0  0  0
    6.0560    0.2310   18.1420 C   0  0  0  0  0  0  0  0  0  0  0  0
    9.3960    0.1260   23.7990 C   0  0  0  0  0  0  0  0  0  0  0  0
   10.6590    0.5220   24.2590 C   0  0  0  0  0  0  0  0  0  0  0  0
  1  2  1  0
  2  3  1  0
  3  4  1  0
  4  5  1  0
  5 20  2  0
  5  6  1  0
  6  7  2  0
  7  8  1  0
  8  9  1  0
  8 19  2  0
  9 10  1  0
 10 11  2  0
 10 12  1  0
 12 13  1  0
 13 14  2  0
 13 18  1  0
 14 15  1  0
 15 16  2  0
 16 17  1  0
 17 18  2  0
 19 20  1  0
M  END
>  <original SMILES>  (195) 
CCOCc1ccc(NC(=O)Nc2cccnc2)cc1

>  <AutoDock Predicted Affinity>  (195) 
-5.48534

>  <ref_pdb>  (195) 
x0434_0

>  <ref_mols>  (195) 
x0434_0

>  <creator>  (195) 
Will Poole

>  <energy minimised>  (195) 
True

$$$$
WPC1009_minimised.pdb
     RDKit          3D

 24 25  0  0  0  0  0  0  0  0999 V2000
   12.1190    6.1980   25.2340 C   0  0  0  0  0  0  0  0  0  0  0  0
   12.2490    5.6920   23.7890 C   0  0  0  0  0  0  0  0  0  0  0  0
   12.4990    4.2810   23.7720 O   0  0  0  0  0  0  0  0  0  0  0  0
   12.6330    3.6010   22.3240 P   0  0  2  0  0  0  0  0  0  0  0  0
   13.0550    4.5570   21.2870 O   0  0  0  0  0  0  0  0  0  0  0  0
   11.1950    3.0890   21.9790 O   0  0  0  0  0  0  0  0  0  0  0  0
   13.7450    2.1620   22.4860 C   0  0  0  0  0  0  0  0  0  0  0  0
   13.3660    1.0860   23.5320 C   0  0  0  0  0  0  0  0  0  0  0  0
   12.0280    0.4400   23.2600 C   0  0  0  0  0  0  0  0  0  0  0  0
   11.8730   -0.4220   22.1630 C   0  0  0  0  0  0  0  0  0  0  0  0
   10.5950   -0.8790   21.8170 C   0  0  0  0  0  0  0  0  0  0  0  0
    9.4730   -0.4610   22.5470 C   0  0  0  0  0  0  0  0  0  0  0  0
    8.1730   -0.6820   22.0480 N   0  0  0  0  0  0  0  0  0  0  0  0
    7.7810   -0.3380   20.7810 C   0  0  0  0  0  0  0  0  0  0  0  0
    8.5410   -0.0780   19.8680 O   0  0  0  0  0  0  0  0  0  0  0  0
    6.4230   -0.2540   20.6490 N   0  0  0  0  0  0  0  0  0  0  0  0
    5.7680    0.3670   19.5590 C   0  0  0  0  0  0  0  0  0  0  0  0
    4.8190    1.3630   19.8150 C   0  0  0  0  0  0  0  0  0  0  0  0
    4.2950    2.0600   18.7190 C   0  0  0  0  0  0  0  0  0  0  0  0
    4.7430    1.7550   17.4250 C   0  0  0  0  0  0  0  0  0  0  0  0
    5.6250    0.7650   17.1660 N   0  0  0  0  0  0  0  0  0  0  0  0
    6.1360    0.1000   18.2220 C   0  0  0  0  0  0  0  0  0  0  0  0
    9.6370    0.3180   23.7000 C   0  0  0  0  0  0  0  0  0  0  0  0
   10.9160    0.7630   24.0620 C   0  0  0  0  0  0  0  0  0  0  0  0
  1  2  1  0
  2  3  1  0
  4  3  1  0
  4  5  2  0
  4  6  1  6
  4  7  1  0
  7  8  1  0
  8  9  1  0
  9 24  2  0
  9 10  1  0
 10 11  2  0
 11 12  1  0
 12 13  1  0
 12 23  2  0
 13 14  1  0
 14 15  2  0
 14 16  1  0
 16 17  1  0
 17 18  2  0
 17 22  1  0
 18 19  1  0
 19 20  2  0
 20 21  1  0
 21 22  2  0
 23 24  1  0
M  END
>  <original SMILES>  (196) 
CCOP(=O)(O)CCc1ccc(NC(=O)Nc2cccnc2)cc1

>  <AutoDock Predicted Affinity>  (196) 
-6.070287

>  <ref_pdb>  (196) 
x0434_0

>  <ref_mols>  (196) 
x0434_0

>  <creator>  (196) 
Will Poole

>  <energy minimised>  (196) 
True

$$$$
WPC0558_minimised.pdb
     RDKit          3D

 23 24  0  0  0  0  0  0  0  0999 V2000
    9.8250    4.9420   23.2820 C   0  0  0  0  0  0  0  0  0  0  0  0
   10.7340    4.9610   24.5230 C   0  0  0  0  0  0  0  0  0  0  0  0
   12.4830    5.3890   24.1190 S   0  0  0  0  0  0  0  0  0  0  0  0
   12.9730    4.4150   22.6710 C   0  0  0  0  0  0  0  0  0  0  0  0
   13.9130    5.1070   21.4890 S   0  0  0  0  0  0  0  0  0  0  0  0
   12.7000    3.0590   22.6300 N   0  0  0  0  0  0  0  0  0  0  0  0
   12.4300    2.1540   23.7590 C   0  0  0  0  0  0  0  0  0  0  0  0
   11.2900    1.1880   23.5000 C   0  0  0  0  0  0  0  0  0  0  0  0
   11.4260    0.1730   22.5380 C   0  0  0  0  0  0  0  0  0  0  0  0
   10.3160   -0.6120   22.1840 C   0  0  0  0  0  0  0  0  0  0  0  0
    9.0730   -0.3870   22.7990 C   0  0  0  0  0  0  0  0  0  0  0  0
    7.8760   -0.9200   22.2770 N   0  0  0  0  0  0  0  0  0  0  0  0
    7.5200   -0.7450   20.9680 C   0  0  0  0  0  0  0  0  0  0  0  0
    8.3070   -0.6700   20.0490 O   0  0  0  0  0  0  0  0  0  0  0  0
    6.1800   -0.5360   20.7970 N   0  0  0  0  0  0  0  0  0  0  0  0
    5.6320    0.1580   19.6890 C   0  0  0  0  0  0  0  0  0  0  0  0
    4.7850    1.2490   19.9300 C   0  0  0  0  0  0  0  0  0  0  0  0
    4.3740    2.0150   18.8300 C   0  0  0  0  0  0  0  0  0  0  0  0
    4.8210    1.6780   17.5440 C   0  0  0  0  0  0  0  0  0  0  0  0
    5.6130    0.6090   17.3000 N   0  0  0  0  0  0  0  0  0  0  0  0
    6.0160   -0.1230   18.3580 C   0  0  0  0  0  0  0  0  0  0  0  0
    8.9720    0.5360   23.8470 C   0  0  0  0  0  0  0  0  0  0  0  0
   10.0790    1.3140   24.2030 C   0  0  0  0  0  0  0  0  0  0  0  0
  1  2  1  0
  2  3  1  0
  3  4  1  0
  4  5  2  0
  4  6  1  0
  6  7  1  0
  7  8  1  0
  8 23  2  0
  8  9  1  0
  9 10  2  0
 10 11  1  0
 11 12  1  0
 11 22  2  0
 12 13  1  0
 13 14  2  0
 13 15  1  0
 15 16  1  0
 16 17  2  0
 16 21  1  0
 17 18  1  0
 18 19  2  0
 19 20  1  0
 20 21  2  0
 22 23  1  0
M  END
>  <original SMILES>  (197) 
CCSC(=S)NCc1ccc(NC(=O)Nc2cccnc2)cc1

>  <AutoDock Predicted Affinity>  (197) 
-5.42841

>  <ref_pdb>  (197) 
x0434_0

>  <ref_mols>  (197) 
x0434_0

>  <creator>  (197) 
Will Poole

>  <energy minimised>  (197) 
True

$$$$
WPC0448_minimised.pdb
     RDKit          3D

 19 20  0  0  0  0  0  0  0  0999 V2000
   12.4640    4.0820   23.1580 C   0  0  0  0  0  0  0  0  0  0  0  0
   13.6830    3.2950   22.6390 C   0  0  0  0  0  0  0  0  0  0  0  0
   13.8030    1.5640   23.2890 S   0  0  0  0  0  0  0  0  0  0  0  0
   12.2060    0.8390   23.0400 C   0  0  0  0  0  0  0  0  0  0  0  0
   12.0270   -0.0740   21.9930 C   0  0  0  0  0  0  0  0  0  0  0  0
   10.7460   -0.5740   21.7220 C   0  0  0  0  0  0  0  0  0  0  0  0
    9.6460   -0.1450   22.4820 C   0  0  0  0  0  0  0  0  0  0  0  0
    8.3300   -0.4280   22.0570 N   0  0  0  0  0  0  0  0  0  0  0  0
    7.8720   -0.1540   20.7950 C   0  0  0  0  0  0  0  0  0  0  0  0
    8.5920    0.1130   19.8520 O   0  0  0  0  0  0  0  0  0  0  0  0
    6.5080   -0.1410   20.6960 N   0  0  0  0  0  0  0  0  0  0  0  0
    5.8110    0.4290   19.6030 C   0  0  0  0  0  0  0  0  0  0  0  0
    4.8630    1.4280   19.8510 C   0  0  0  0  0  0  0  0  0  0  0  0
    4.3170    2.0950   18.7460 C   0  0  0  0  0  0  0  0  0  0  0  0
    4.7450    1.7610   17.4530 C   0  0  0  0  0  0  0  0  0  0  0  0
    5.6210    0.7610   17.2030 N   0  0  0  0  0  0  0  0  0  0  0  0
    6.1500    0.1240   18.2670 C   0  0  0  0  0  0  0  0  0  0  0  0
    9.8420    0.6970   23.5860 C   0  0  0  0  0  0  0  0  0  0  0  0
   11.1270    1.1790   23.8730 C   0  0  0  0  0  0  0  0  0  0  0  0
  1  2  1  0
  2  3  1  0
  3  4  1  0
  4 19  2  0
  4  5  1  0
  5  6  2  0
  6  7  1  0
  7  8  1  0
  7 18  2  0
  8  9  1  0
  9 10  2  0
  9 11  1  0
 11 12  1  0
 12 13  2  0
 12 17  1  0
 13 14  1  0
 14 15  2  0
 15 16  1  0
 16 17  2  0
 18 19  1  0
M  END
>  <original SMILES>  (198) 
CCSc1ccc(NC(=O)Nc2cccnc2)cc1

>  <AutoDock Predicted Affinity>  (198) 
-5.29636

>  <ref_pdb>  (198) 
x0434_0

>  <ref_mols>  (198) 
x0434_0

>  <creator>  (198) 
Will Poole

>  <energy minimised>  (198) 
True

$$$$
WPC0779_minimised.pdb
     RDKit          3D

 18 19  0  0  0  0  0  0  0  0999 V2000
   14.2380    0.3560   22.6120 C   0  0  0  0  0  0  0  0  0  0  0  0
   13.1440    0.8650   23.5630 C   0  0  0  0  0  0  0  0  0  0  0  0
   11.7300    0.4300   23.2200 C   0  0  0  0  0  0  0  0  0  0  0  0
   11.4540   -0.5940   22.2910 C   0  0  0  0  0  0  0  0  0  0  0  0
   10.1300   -0.8670   21.9240 C   0  0  0  0  0  0  0  0  0  0  0  0
    9.0800   -0.1280   22.4860 C   0  0  0  0  0  0  0  0  0  0  0  0
    7.7780   -0.2470   21.9700 N   0  0  0  0  0  0  0  0  0  0  0  0
    7.4640    0.0290   20.6700 C   0  0  0  0  0  0  0  0  0  0  0  0
    8.2800    0.1780   19.7800 O   0  0  0  0  0  0  0  0  0  0  0  0
    6.1200    0.1780   20.4800 N   0  0  0  0  0  0  0  0  0  0  0  0
    5.5250    0.7640   19.3420 C   0  0  0  0  0  0  0  0  0  0  0  0
    4.5480    1.7490   19.5210 C   0  0  0  0  0  0  0  0  0  0  0  0
    4.0770    2.4110   18.3820 C   0  0  0  0  0  0  0  0  0  0  0  0
    4.6090    2.0900   17.1260 C   0  0  0  0  0  0  0  0  0  0  0  0
    5.5190    1.1070   16.9380 N   0  0  0  0  0  0  0  0  0  0  0  0
    5.9700    0.4690   18.0350 C   0  0  0  0  0  0  0  0  0  0  0  0
    9.3410    0.8370   23.4660 C   0  0  0  0  0  0  0  0  0  0  0  0
   10.6650    1.1130   23.8330 C   0  0  0  0  0  0  0  0  0  0  0  0
  1  2  1  0
  2  3  1  0
  3 18  2  0
  3  4  1  0
  4  5  2  0
  5  6  1  0
  6  7  1  0
  6 17  2  0
  7  8  1  0
  8  9  2  0
  8 10  1  0
 10 11  1  0
 11 12  2  0
 11 16  1  0
 12 13  1  0
 13 14  2  0
 14 15  1  0
 15 16  2  0
 17 18  1  0
M  END
>  <original SMILES>  (199) 
CCc1ccc(NC(=O)Nc2cccnc2)cc1

>  <AutoDock Predicted Affinity>  (199) 
-5.51805

>  <ref_pdb>  (199) 
x0434_0

>  <ref_mols>  (199) 
x0434_0

>  <creator>  (199) 
Will Poole

>  <energy minimised>  (199) 
True

$$$$
WPC1025_minimised.pdb
     RDKit          3D

 24 25  0  0  0  0  0  0  0  0999 V2000
   12.7800    5.7900   23.9270 C   0  0  0  0  0  0  0  0  0  0  0  0
   13.2350    5.4700   22.5630 N   0  0  0  0  0  0  0  0  0  0  0  0
   14.2450    6.3600   21.9710 C   0  0  0  0  0  0  0  0  0  0  0  0
   12.8050    4.3680   21.8430 C   0  0  0  0  0  0  0  0  0  0  0  0
   12.8910    4.3630   20.6330 O   0  0  0  0  0  0  0  0  0  0  0  0
   12.5140    3.0850   22.6140 C   0  0  0  0  0  0  0  0  0  0  0  0
   13.7790    2.1950   22.6680 C   0  0  0  0  0  0  0  0  0  0  0  0
   13.5790    0.7710   23.8110 S   0  0  0  0  0  0  0  0  0  0  0  0
   11.9610    0.1800   23.4120 C   0  0  0  0  0  0  0  0  0  0  0  0
   11.7760   -0.5730   22.2460 C   0  0  0  0  0  0  0  0  0  0  0  0
   10.4780   -0.9090   21.8440 C   0  0  0  0  0  0  0  0  0  0  0  0
    9.3710   -0.4660   22.5860 C   0  0  0  0  0  0  0  0  0  0  0  0
    8.0690   -0.5880   22.0610 N   0  0  0  0  0  0  0  0  0  0  0  0
    7.7160   -0.2230   20.7880 C   0  0  0  0  0  0  0  0  0  0  0  0
    8.5050    0.0440   19.9000 O   0  0  0  0  0  0  0  0  0  0  0  0
    6.3630   -0.1340   20.6240 N   0  0  0  0  0  0  0  0  0  0  0  0
    5.7280    0.4690   19.5150 C   0  0  0  0  0  0  0  0  0  0  0  0
    4.7560    1.4500   19.7430 C   0  0  0  0  0  0  0  0  0  0  0  0
    4.2410    2.1260   18.6300 C   0  0  0  0  0  0  0  0  0  0  0  0
    4.7210    1.8180   17.3490 C   0  0  0  0  0  0  0  0  0  0  0  0
    5.6250    0.8400   17.1160 N   0  0  0  0  0  0  0  0  0  0  0  0
    6.1280    0.1960   18.1880 C   0  0  0  0  0  0  0  0  0  0  0  0
    9.5650    0.2220   23.7930 C   0  0  0  0  0  0  0  0  0  0  0  0
   10.8650    0.5400   24.2120 C   0  0  0  0  0  0  0  0  0  0  0  0
  1  2  1  0
  2  3  1  0
  2  4  1  0
  4  5  2  0
  4  6  1  0
  6  7  1  0
  7  8  1  0
  8  9  1  0
  9 24  2  0
  9 10  1  0
 10 11  2  0
 11 12  1  0
 12 13  1  0
 12 23  2  0
 13 14  1  0
 14 15  2  0
 14 16  1  0
 16 17  1  0
 17 18  2  0
 17 22  1  0
 18 19  1  0
 19 20  2  0
 20 21  1  0
 21 22  2  0
 23 24  1  0
M  END
>  <original SMILES>  (200) 
CN(C)C(=O)CCSc1ccc(NC(=O)Nc2cccnc2)cc1

>  <AutoDock Predicted Affinity>  (200) 
-5.230735

>  <ref_pdb>  (200) 
x0434_0

>  <ref_mols>  (200) 
x0434_0

>  <creator>  (200) 
Will Poole

>  <energy minimised>  (200) 
True

$$$$
WPC0937_minimised.pdb
     RDKit          3D

 23 24  0  0  1  0  0  0  0  0999 V2000
   11.0810    4.3350   23.5950 C   0  0  0  0  0  0  0  0  0  0  0  0
   12.4460    3.7810   23.5040 N   0  0  0  0  0  0  0  0  0  0  0  0
   13.4530    4.8570   23.4650 C   0  0  0  0  0  0  0  0  0  0  0  0
   12.5840    2.8590   22.3550 C   0  0  0  0  0  0  0  0  0  0  0  0
   13.6560    1.7580   22.5670 C   0  0  0  0  0  0  0  0  0  0  0  0
   13.2740    0.7260   23.6530 C   0  0  2  0  0  0  0  0  0  0  0  0
   14.2410   -0.3200   23.7040 O   0  0  0  0  0  0  0  0  0  0  0  0
   11.8990    0.1370   23.3990 C   0  0  0  0  0  0  0  0  0  0  0  0
   11.6870   -0.7240   22.3090 C   0  0  0  0  0  0  0  0  0  0  0  0
   10.3810   -1.0560   21.9270 C   0  0  0  0  0  0  0  0  0  0  0  0
    9.2870   -0.5160   22.6200 C   0  0  0  0  0  0  0  0  0  0  0  0
    7.9900   -0.6000   22.0760 N   0  0  0  0  0  0  0  0  0  0  0  0
    7.6800   -0.2130   20.7990 C   0  0  0  0  0  0  0  0  0  0  0  0
    8.4940    0.0070   19.9230 O   0  0  0  0  0  0  0  0  0  0  0  0
    6.3370   -0.0460   20.6150 N   0  0  0  0  0  0  0  0  0  0  0  0
    5.7440    0.5730   19.4900 C   0  0  0  0  0  0  0  0  0  0  0  0
    4.7810    1.5680   19.6930 C   0  0  0  0  0  0  0  0  0  0  0  0
    4.3030    2.2490   18.5680 C   0  0  0  0  0  0  0  0  0  0  0  0
    4.8090    1.9340   17.2990 C   0  0  0  0  0  0  0  0  0  0  0  0
    5.7020    0.9410   17.0890 N   0  0  0  0  0  0  0  0  0  0  0  0
    6.1680    0.2900   18.1740 C   0  0  0  0  0  0  0  0  0  0  0  0
    9.4960    0.2600   23.7670 C   0  0  0  0  0  0  0  0  0  0  0  0
   10.8020    0.5850   24.1590 C   0  0  0  0  0  0  0  0  0  0  0  0
  1  2  1  0
  2  3  1  0
  2  4  1  0
  4  5  1  0
  5  6  1  0
  6  7  1  6
  6  8  1  0
  8 23  2  0
  8  9  1  0
  9 10  2  0
 10 11  1  0
 11 12  1  0
 11 22  2  0
 12 13  1  0
 13 14  2  0
 13 15  1  0
 15 16  1  0
 16 17  2  0
 16 21  1  0
 17 18  1  0
 18 19  2  0
 19 20  1  0
 20 21  2  0
 22 23  1  0
M  END
>  <original SMILES>  (201) 
CN(C)CCC(O)c1ccc(NC(=O)Nc2cccnc2)cc1

>  <AutoDock Predicted Affinity>  (201) 
-6.38848

>  <ref_pdb>  (201) 
x0434_0

>  <ref_mols>  (201) 
x0434_0

>  <creator>  (201) 
Will Poole

>  <energy minimised>  (201) 
True

$$$$
WPC0764_minimised.pdb
     RDKit          3D

 22 23  0  0  0  0  0  0  0  0999 V2000
   11.9350    5.6580   24.0150 C   0  0  0  0  0  0  0  0  0  0  0  0
   12.9450    4.6980   23.5320 N   0  0  0  0  0  0  0  0  0  0  0  0
   13.5730    5.1630   22.2780 C   0  0  0  0  0  0  0  0  0  0  0  0
   12.3950    3.3260   23.4670 C   0  0  0  0  0  0  0  0  0  0  0  0
   13.4200    2.2680   22.9880 C   0  0  0  0  0  0  0  0  0  0  0  0
   13.2070    0.8490   23.5750 C   0  0  0  0  0  0  0  0  0  0  0  0
   11.8250    0.2900   23.2980 C   0  0  0  0  0  0  0  0  0  0  0  0
   11.6290   -0.5930   22.2230 C   0  0  0  0  0  0  0  0  0  0  0  0
   10.3310   -0.9690   21.8590 C   0  0  0  0  0  0  0  0  0  0  0  0
    9.2290   -0.4590   22.5590 C   0  0  0  0  0  0  0  0  0  0  0  0
    7.9310   -0.5940   22.0310 N   0  0  0  0  0  0  0  0  0  0  0  0
    7.5960   -0.2270   20.7540 C   0  0  0  0  0  0  0  0  0  0  0  0
    8.3940    0.0010   19.8640 O   0  0  0  0  0  0  0  0  0  0  0  0
    6.2480   -0.0850   20.5920 N   0  0  0  0  0  0  0  0  0  0  0  0
    5.6300    0.5370   19.4820 C   0  0  0  0  0  0  0  0  0  0  0  0
    4.6720    1.5320   19.7080 C   0  0  0  0  0  0  0  0  0  0  0  0
    4.1740    2.2190   18.5940 C   0  0  0  0  0  0  0  0  0  0  0  0
    4.6520    1.9030   17.3150 C   0  0  0  0  0  0  0  0  0  0  0  0
    5.5430    0.9120   17.0840 N   0  0  0  0  0  0  0  0  0  0  0  0
    6.0310    0.2600   18.1580 C   0  0  0  0  0  0  0  0  0  0  0  0
    9.4250    0.3170   23.7080 C   0  0  0  0  0  0  0  0  0  0  0  0
   10.7250    0.6770   24.0880 C   0  0  0  0  0  0  0  0  0  0  0  0
  1  2  1  0
  2  3  1  0
  2  4  1  0
  4  5  1  0
  5  6  1  0
  6  7  1  0
  7 22  2  0
  7  8  1  0
  8  9  2  0
  9 10  1  0
 10 11  1  0
 10 21  2  0
 11 12  1  0
 12 13  2  0
 12 14  1  0
 14 15  1  0
 15 16  2  0
 15 20  1  0
 16 17  1  0
 17 18  2  0
 18 19  1  0
 19 20  2  0
 21 22  1  0
M  END
>  <original SMILES>  (202) 
CN(C)CCCc1ccc(NC(=O)Nc2cccnc2)cc1

>  <AutoDock Predicted Affinity>  (202) 
-6.2024

>  <ref_pdb>  (202) 
x0434_0

>  <ref_mols>  (202) 
x0434_0

>  <creator>  (202) 
Will Poole

>  <energy minimised>  (202) 
True

$$$$
WPC0795_minimised.pdb
     RDKit          3D

 21 22  0  0  0  0  0  0  0  0999 V2000
   12.0020    3.6260   22.3570 C   0  0  0  0  0  0  0  0  0  0  0  0
   13.2790    3.4140   23.0720 N   0  0  0  0  0  0  0  0  0  0  0  0
   14.0850    4.6440   23.0050 C   0  0  0  0  0  0  0  0  0  0  0  0
   14.0230    2.2140   22.6150 C   0  0  0  0  0  0  0  0  0  0  0  0
   13.6480    0.9030   23.3500 C   0  0  0  0  0  0  0  0  0  0  0  0
   12.2330    0.4180   23.1070 C   0  0  0  0  0  0  0  0  0  0  0  0
   11.9550   -0.3950   21.9980 C   0  0  0  0  0  0  0  0  0  0  0  0
   10.6310   -0.7560   21.7210 C   0  0  0  0  0  0  0  0  0  0  0  0
    9.5820   -0.2850   22.5240 C   0  0  0  0  0  0  0  0  0  0  0  0
    8.2460   -0.4370   22.1020 N   0  0  0  0  0  0  0  0  0  0  0  0
    7.7990   -0.0910   20.8540 C   0  0  0  0  0  0  0  0  0  0  0  0
    8.5260    0.2180   19.9280 O   0  0  0  0  0  0  0  0  0  0  0  0
    6.4370   -0.0820   20.7410 N   0  0  0  0  0  0  0  0  0  0  0  0
    5.7450    0.4660   19.6350 C   0  0  0  0  0  0  0  0  0  0  0  0
    4.7800    1.4560   19.8580 C   0  0  0  0  0  0  0  0  0  0  0  0
    4.2340    2.0950   18.7380 C   0  0  0  0  0  0  0  0  0  0  0  0
    4.6730    1.7400   17.4540 C   0  0  0  0  0  0  0  0  0  0  0  0
    5.5670    0.7510   17.2260 N   0  0  0  0  0  0  0  0  0  0  0  0
    6.1020    0.1460   18.3060 C   0  0  0  0  0  0  0  0  0  0  0  0
    9.8650    0.4570   23.6790 C   0  0  0  0  0  0  0  0  0  0  0  0
   11.1930    0.7970   23.9770 C   0  0  0  0  0  0  0  0  0  0  0  0
  1  2  1  0
  2  3  1  0
  2  4  1  0
  4  5  1  0
  5  6  1  0
  6 21  2  0
  6  7  1  0
  7  8  2  0
  8  9  1  0
  9 10  1  0
  9 20  2  0
 10 11  1  0
 11 12  2  0
 11 13  1  0
 13 14  1  0
 14 15  2  0
 14 19  1  0
 15 16  1  0
 16 17  2  0
 17 18  1  0
 18 19  2  0
 20 21  1  0
M  END
>  <original SMILES>  (203) 
CN(C)CCc1ccc(NC(=O)Nc2cccnc2)cc1

>  <AutoDock Predicted Affinity>  (203) 
-5.856707

>  <ref_pdb>  (203) 
x0434_0

>  <ref_mols>  (203) 
x0434_0

>  <creator>  (203) 
Will Poole

>  <energy minimised>  (203) 
True

$$$$
WPC0839_minimised.pdb
     RDKit          3D

 23 24  0  0  0  0  0  0  0  0999 V2000
   14.7390    1.5300   22.1240 C   0  0  0  0  0  0  0  0  0  0  0  0
   13.7110    2.3660   22.7640 N   0  0  0  0  0  0  0  0  0  0  0  0
   12.9310    1.6410   23.7840 C   0  0  0  0  0  0  0  0  0  0  0  0
   11.6080    1.1000   23.2860 C   0  0  0  0  0  0  0  0  0  0  0  0
   11.5470    0.0610   22.3390 C   0  0  0  0  0  0  0  0  0  0  0  0
   10.3030   -0.4230   21.9090 C   0  0  0  0  0  0  0  0  0  0  0  0
    9.1210    0.1190   22.4350 C   0  0  0  0  0  0  0  0  0  0  0  0
    7.8630   -0.2500   21.9270 N   0  0  0  0  0  0  0  0  0  0  0  0
    7.5170   -0.1110   20.6140 C   0  0  0  0  0  0  0  0  0  0  0  0
    8.3080   -0.0010   19.6990 O   0  0  0  0  0  0  0  0  0  0  0  0
    6.1650   -0.0140   20.4500 N   0  0  0  0  0  0  0  0  0  0  0  0
    5.5480    0.5940   19.3350 C   0  0  0  0  0  0  0  0  0  0  0  0
    4.5990    1.5990   19.5590 C   0  0  0  0  0  0  0  0  0  0  0  0
    4.1180    2.2970   18.4450 C   0  0  0  0  0  0  0  0  0  0  0  0
    4.6120    1.9900   17.1700 C   0  0  0  0  0  0  0  0  0  0  0  0
    5.4950    0.9910   16.9420 N   0  0  0  0  0  0  0  0  0  0  0  0
    5.9590    0.3200   18.0140 C   0  0  0  0  0  0  0  0  0  0  0  0
    9.1780    1.1240   23.4080 C   0  0  0  0  0  0  0  0  0  0  0  0
   10.4190    1.6130   23.8340 C   0  0  0  0  0  0  0  0  0  0  0  0
   13.9040    3.7270   22.8590 C   0  0  0  0  0  0  0  0  0  0  0  0
   14.9310    4.1390   23.4790 N   0  0  0  0  0  0  0  0  0  0  0  0
   12.9440    4.6790   22.1910 C   0  0  0  0  0  0  0  0  0  0  0  0
   13.9950    6.1010   21.6130 S   0  0  0  0  0  0  0  0  0  0  0  0
  1  2  1  0
  2 20  1  0
  2  3  1  0
  3  4  1  0
  4 19  2  0
  4  5  1  0
  5  6  2  0
  6  7  1  0
  7  8  1  0
  7 18  2  0
  8  9  1  0
  9 10  2  0
  9 11  1  0
 11 12  1  0
 12 13  2  0
 12 17  1  0
 13 14  1  0
 14 15  2  0
 15 16  1  0
 16 17  2  0
 18 19  1  0
 20 22  1  0
 20 21  2  0
 22 23  1  0
M  END
>  <original SMILES>  (204) 
CN(Cc1ccc(NC(=O)Nc2cccnc2)cc1)C(=N)CS

>  <AutoDock Predicted Affinity>  (204) 
-6.043755

>  <ref_pdb>  (204) 
x0434_0

>  <ref_mols>  (204) 
x0434_0

>  <creator>  (204) 
Will Poole

>  <energy minimised>  (204) 
True

$$$$
WPC0723_minimised.pdb
     RDKit          3D

 24 25  0  0  0  0  0  0  0  0999 V2000
   12.2710    6.1870   24.8300 C   0  0  0  0  0  0  0  0  0  0  0  0
   13.1780    6.1210   23.6770 N   0  0  0  0  0  0  0  0  0  0  0  0
   13.8710    7.3360   23.4480 O   0  0  0  0  0  0  0  0  0  0  0  0
   13.3970    5.0370   22.8150 C   0  0  0  0  0  0  0  0  0  0  0  0
   14.1260    5.1590   21.8450 O   0  0  0  0  0  0  0  0  0  0  0  0
   12.7850    3.6740   23.1780 C   0  0  0  0  0  0  0  0  0  0  0  0
   13.7050    2.4880   22.7770 C   0  0  0  0  0  0  0  0  0  0  0  0
   13.4380    1.1510   23.5120 C   0  0  0  0  0  0  0  0  0  0  0  0
   12.0460    0.6050   23.2670 C   0  0  0  0  0  0  0  0  0  0  0  0
   11.8400   -0.3680   22.2750 C   0  0  0  0  0  0  0  0  0  0  0  0
   10.5370   -0.7600   21.9440 C   0  0  0  0  0  0  0  0  0  0  0  0
    9.4420   -0.1850   22.6030 C   0  0  0  0  0  0  0  0  0  0  0  0
    8.1350   -0.3900   22.1200 N   0  0  0  0  0  0  0  0  0  0  0  0
    7.7560   -0.1250   20.8320 C   0  0  0  0  0  0  0  0  0  0  0  0
    8.5280    0.0770   19.9140 O   0  0  0  0  0  0  0  0  0  0  0  0
    6.3990   -0.0490   20.6880 N   0  0  0  0  0  0  0  0  0  0  0  0
    5.7400    0.5130   19.5700 C   0  0  0  0  0  0  0  0  0  0  0  0
    4.7680    1.4980   19.7840 C   0  0  0  0  0  0  0  0  0  0  0  0
    4.2330    2.1400   18.6600 C   0  0  0  0  0  0  0  0  0  0  0  0
    4.6910    1.7930   17.3820 C   0  0  0  0  0  0  0  0  0  0  0  0
    5.5900    0.8070   17.1630 N   0  0  0  0  0  0  0  0  0  0  0  0
    6.1140    0.1980   18.2460 C   0  0  0  0  0  0  0  0  0  0  0  0
    9.6490    0.7020   23.6680 C   0  0  0  0  0  0  0  0  0  0  0  0
   10.9530    1.0900   24.0070 C   0  0  0  0  0  0  0  0  0  0  0  0
  1  2  1  0
  2  3  1  0
  2  4  1  0
  4  5  2  0
  4  6  1  0
  6  7  1  0
  7  8  1  0
  8  9  1  0
  9 24  2  0
  9 10  1  0
 10 11  2  0
 11 12  1  0
 12 13  1  0
 12 23  2  0
 13 14  1  0
 14 15  2  0
 14 16  1  0
 16 17  1  0
 17 18  2  0
 17 22  1  0
 18 19  1  0
 19 20  2  0
 20 21  1  0
 21 22  2  0
 23 24  1  0
M  END
>  <original SMILES>  (205) 
CN(O)C(=O)CCCc1ccc(NC(=O)Nc2cccnc2)cc1

>  <AutoDock Predicted Affinity>  (205) 
-6.31787

>  <ref_pdb>  (205) 
x0434_0

>  <ref_mols>  (205) 
x0434_0

>  <creator>  (205) 
Will Poole

>  <energy minimised>  (205) 
True

$$$$
WPC0460_minimised.pdb
     RDKit          3D

 22 23  0  0  0  0  0  0  0  0999 V2000
   11.4880    4.4720   22.5190 C   0  0  0  0  0  0  0  0  0  0  0  0
   12.6480    4.5400   23.4140 N   0  0  0  0  0  0  0  0  0  0  0  0
   12.7470    5.7830   24.0990 O   0  0  0  0  0  0  0  0  0  0  0  0
   13.8120    3.7810   23.2730 C   0  0  0  0  0  0  0  0  0  0  0  0
   14.8750    4.3410   23.4810 O   0  0  0  0  0  0  0  0  0  0  0  0
   13.7870    2.2470   23.0560 C   0  0  0  0  0  0  0  0  0  0  0  0
   12.4490    1.5170   22.9950 C   0  0  0  0  0  0  0  0  0  0  0  0
   12.2400    0.5960   21.9580 C   0  0  0  0  0  0  0  0  0  0  0  0
   10.9840    0.0020   21.7860 C   0  0  0  0  0  0  0  0  0  0  0  0
    9.9200    0.3410   22.6350 C   0  0  0  0  0  0  0  0  0  0  0  0
    8.5950   -0.0160   22.2920 N   0  0  0  0  0  0  0  0  0  0  0  0
    8.0540    0.1770   21.0440 C   0  0  0  0  0  0  0  0  0  0  0  0
    8.7060    0.4720   20.0610 O   0  0  0  0  0  0  0  0  0  0  0  0
    6.6910    0.0610   20.9810 N   0  0  0  0  0  0  0  0  0  0  0  0
    5.9320    0.4930   19.8640 C   0  0  0  0  0  0  0  0  0  0  0  0
    4.9610    1.4850   20.0460 C   0  0  0  0  0  0  0  0  0  0  0  0
    4.3600    2.0270   18.9030 C   0  0  0  0  0  0  0  0  0  0  0  0
    4.7450    1.5700   17.6340 C   0  0  0  0  0  0  0  0  0  0  0  0
    5.6420    0.5750   17.4470 N   0  0  0  0  0  0  0  0  0  0  0  0
    6.2350    0.0700   18.5490 C   0  0  0  0  0  0  0  0  0  0  0  0
   10.1600    1.1540   23.7530 C   0  0  0  0  0  0  0  0  0  0  0  0
   11.4300    1.7220   23.9470 C   0  0  0  0  0  0  0  0  0  0  0  0
  1  2  1  0
  2  3  1  0
  2  4  1  0
  4  5  2  0
  4  6  1  0
  6  7  1  0
  7 22  2  0
  7  8  1  0
  8  9  2  0
  9 10  1  0
 10 11  1  0
 10 21  2  0
 11 12  1  0
 12 13  2  0
 12 14  1  0
 14 15  1  0
 15 16  2  0
 15 20  1  0
 16 17  1  0
 17 18  2  0
 18 19  1  0
 19 20  2  0
 21 22  1  0
M  END
>  <original SMILES>  (206) 
CN(O)C(=O)Cc1ccc(NC(=O)Nc2cccnc2)cc1

>  <AutoDock Predicted Affinity>  (206) 
-6.43847

>  <ref_pdb>  (206) 
x0434_0

>  <ref_mols>  (206) 
x0434_0

>  <creator>  (206) 
Will Poole

>  <energy minimised>  (206) 
True

$$$$
WPC0988_minimised.pdb
     RDKit          3D

 23 24  0  0  0  0  0  0  0  0999 V2000
   11.6700    5.2560   24.4330 C   0  0  0  0  0  0  0  0  0  0  0  0
   11.9550    3.8300   24.1960 N   0  0  0  0  0  0  0  0  0  0  0  0
   12.9120    3.5090   23.4210 C   0  0  0  0  0  0  0  0  0  0  0  0
   13.9430    4.3030   23.0530 N   0  0  0  0  0  0  0  0  0  0  0  0
   13.8710    5.2470   21.9350 C   0  0  0  0  0  0  0  0  0  0  0  0
   13.4030    2.2600   23.2350 N   0  0  0  0  0  0  0  0  0  0  0  0
   13.0040    1.0340   23.9190 C   0  0  0  0  0  0  0  0  0  0  0  0
   11.6680    0.5290   23.4330 C   0  0  0  0  0  0  0  0  0  0  0  0
   11.5840   -0.3280   22.3220 C   0  0  0  0  0  0  0  0  0  0  0  0
   10.3260   -0.7280   21.8510 C   0  0  0  0  0  0  0  0  0  0  0  0
    9.1590   -0.2610   22.4750 C   0  0  0  0  0  0  0  0  0  0  0  0
    7.8930   -0.4820   21.9030 N   0  0  0  0  0  0  0  0  0  0  0  0
    7.5820   -0.1740   20.6080 C   0  0  0  0  0  0  0  0  0  0  0  0
    8.3940    0.0250   19.7250 O   0  0  0  0  0  0  0  0  0  0  0  0
    6.2350   -0.0410   20.4250 N   0  0  0  0  0  0  0  0  0  0  0  0
    5.6340    0.6000   19.3190 C   0  0  0  0  0  0  0  0  0  0  0  0
    4.6650    1.5830   19.5490 C   0  0  0  0  0  0  0  0  0  0  0  0
    4.1900    2.2990   18.4430 C   0  0  0  0  0  0  0  0  0  0  0  0
    4.7130    2.0330   17.1700 C   0  0  0  0  0  0  0  0  0  0  0  0
    5.6170    1.0550   16.9340 N   0  0  0  0  0  0  0  0  0  0  0  0
    6.0700    0.3640   17.9980 C   0  0  0  0  0  0  0  0  0  0  0  0
    9.2450    0.5480   23.6160 C   0  0  0  0  0  0  0  0  0  0  0  0
   10.5000    0.9400   24.0970 C   0  0  0  0  0  0  0  0  0  0  0  0
  1  2  1  0
  2  3  2  0
  3  4  1  0
  3  6  1  0
  4  5  1  0
  6  7  1  0
  7  8  1  0
  8 23  2  0
  8  9  1  0
  9 10  2  0
 10 11  1  0
 11 12  1  0
 11 22  2  0
 12 13  1  0
 13 14  2  0
 13 15  1  0
 15 16  1  0
 16 17  2  0
 16 21  1  0
 17 18  1  0
 18 19  2  0
 19 20  1  0
 20 21  2  0
 22 23  1  0
M  END
>  <original SMILES>  (207) 
CN=C(NC)NCc1ccc(NC(=O)Nc2cccnc2)cc1

>  <AutoDock Predicted Affinity>  (207) 
-7.01254

>  <ref_pdb>  (207) 
x0434_0

>  <ref_mols>  (207) 
x0434_0

>  <creator>  (207) 
Will Poole

>  <energy minimised>  (207) 
True

$$$$
WPC0908_minimised.pdb
     RDKit          3D

 23 24  0  0  0  0  0  0  0  0999 V2000
    9.4620    5.8010   22.9730 C   0  0  0  0  0  0  0  0  0  0  0  0
   10.4710    6.1500   23.9890 N   0  0  0  0  0  0  0  0  0  0  0  0
   11.6630    5.7120   23.8210 C   0  0  0  0  0  0  0  0  0  0  0  0
   12.6970    6.0890   24.6440 N   0  0  0  0  0  0  0  0  0  0  0  0
   12.5560    6.9520   25.8190 C   0  0  0  0  0  0  0  0  0  0  0  0
   12.3420    4.7060   22.5960 S   0  0  0  0  0  0  0  0  0  0  0  0
   12.5020    3.1270   23.5320 C   0  0  0  0  0  0  0  0  0  0  0  0
   11.3980    2.1340   23.2420 C   0  0  0  0  0  0  0  0  0  0  0  0
   11.6170    1.0420   22.3840 C   0  0  0  0  0  0  0  0  0  0  0  0
   10.5530    0.1920   22.0470 C   0  0  0  0  0  0  0  0  0  0  0  0
    9.2770    0.4290   22.5820 C   0  0  0  0  0  0  0  0  0  0  0  0
    8.1440   -0.2390   22.0810 N   0  0  0  0  0  0  0  0  0  0  0  0
    7.7630   -0.1320   20.7720 C   0  0  0  0  0  0  0  0  0  0  0  0
    8.5180    0.1170   19.8520 O   0  0  0  0  0  0  0  0  0  0  0  0
    6.4090   -0.2150   20.6120 N   0  0  0  0  0  0  0  0  0  0  0  0
    5.7360    0.3780   19.5200 C   0  0  0  0  0  0  0  0  0  0  0  0
    4.8010    1.3900   19.7750 C   0  0  0  0  0  0  0  0  0  0  0  0
    4.2870    2.0930   18.6790 C   0  0  0  0  0  0  0  0  0  0  0  0
    4.7260    1.7750   17.3850 C   0  0  0  0  0  0  0  0  0  0  0  0
    5.6000    0.7750   17.1290 N   0  0  0  0  0  0  0  0  0  0  0  0
    6.1030    0.1060   18.1860 C   0  0  0  0  0  0  0  0  0  0  0  0
    9.0800    1.4610   23.5100 C   0  0  0  0  0  0  0  0  0  0  0  0
   10.1430    2.3110   23.8440 C   0  0  0  0  0  0  0  0  0  0  0  0
  1  2  1  0
  2  3  2  0
  3  4  1  0
  3  6  1  0
  4  5  1  0
  6  7  1  0
  7  8  1  0
  8 23  2  0
  8  9  1  0
  9 10  2  0
 10 11  1  0
 11 12  1  0
 11 22  2  0
 12 13  1  0
 13 14  2  0
 13 15  1  0
 15 16  1  0
 16 17  2  0
 16 21  1  0
 17 18  1  0
 18 19  2  0
 19 20  1  0
 20 21  2  0
 22 23  1  0
M  END
>  <original SMILES>  (208) 
CN=C(NC)SCc1ccc(NC(=O)Nc2cccnc2)cc1

>  <AutoDock Predicted Affinity>  (208) 
-5.65341

>  <ref_pdb>  (208) 
x0434_0

>  <ref_mols>  (208) 
x0434_0

>  <creator>  (208) 
Will Poole

>  <energy minimised>  (208) 
True

$$$$
WPC0607_minimised.pdb
     RDKit          3D

 22 23  0  0  0  0  0  0  0  0999 V2000
   14.0740    5.2270   22.4070 C   0  0  0  0  0  0  0  0  0  0  0  0
   14.4910    3.8270   22.5480 N   0  0  0  0  0  0  0  0  0  0  0  0
   13.6260    2.7850   22.3260 C   0  0  0  0  0  0  0  0  0  0  0  0
   12.4390    2.9840   22.1950 O   0  0  0  0  0  0  0  0  0  0  0  0
   14.2680    1.4050   22.2090 C   0  0  0  0  0  0  0  0  0  0  0  0
   13.7430    0.3670   23.2180 C   0  0  0  0  0  0  0  0  0  0  0  0
   12.2850    0.0150   22.9970 C   0  0  0  0  0  0  0  0  0  0  0  0
   11.9260   -0.9650   22.0560 C   0  0  0  0  0  0  0  0  0  0  0  0
   10.5720   -1.2180   21.7950 C   0  0  0  0  0  0  0  0  0  0  0  0
    9.5770   -0.4790   22.4500 C   0  0  0  0  0  0  0  0  0  0  0  0
    8.2330   -0.5680   22.0400 N   0  0  0  0  0  0  0  0  0  0  0  0
    7.8160   -0.3230   20.7590 C   0  0  0  0  0  0  0  0  0  0  0  0
    8.5540   -0.2540   19.7960 O   0  0  0  0  0  0  0  0  0  0  0  0
    6.4690   -0.1120   20.6740 N   0  0  0  0  0  0  0  0  0  0  0  0
    5.8090    0.4740   19.5670 C   0  0  0  0  0  0  0  0  0  0  0  0
    4.8700    1.4850   19.8030 C   0  0  0  0  0  0  0  0  0  0  0  0
    4.3260    2.1420   18.6930 C   0  0  0  0  0  0  0  0  0  0  0  0
    4.7520    1.7920   17.4040 C   0  0  0  0  0  0  0  0  0  0  0  0
    5.6180    0.7820   17.1630 N   0  0  0  0  0  0  0  0  0  0  0  0
    6.1430    0.1510   18.2330 C   0  0  0  0  0  0  0  0  0  0  0  0
    9.9290    0.4570   23.4290 C   0  0  0  0  0  0  0  0  0  0  0  0
   11.2810    0.6970   23.7080 C   0  0  0  0  0  0  0  0  0  0  0  0
  1  2  1  0
  2  3  1  0
  3  4  2  0
  3  5  1  0
  5  6  1  0
  6  7  1  0
  7 22  2  0
  7  8  1  0
  8  9  2  0
  9 10  1  0
 10 11  1  0
 10 21  2  0
 11 12  1  0
 12 13  2  0
 12 14  1  0
 14 15  1  0
 15 16  2  0
 15 20  1  0
 16 17  1  0
 17 18  2  0
 18 19  1  0
 19 20  2  0
 21 22  1  0
M  END
>  <original SMILES>  (209) 
CNC(=O)CCc1ccc(NC(=O)Nc2cccnc2)cc1

>  <AutoDock Predicted Affinity>  (209) 
-6.168785

>  <ref_pdb>  (209) 
x0434_0

>  <ref_mols>  (209) 
x0434_0

>  <creator>  (209) 
Will Poole

>  <energy minimised>  (209) 
True

$$$$
WPC0965_minimised.pdb
     RDKit          3D

 21 22  0  0  0  0  0  0  0  0999 V2000
   11.8760    5.1070   22.7350 C   0  0  0  0  0  0  0  0  0  0  0  0
   12.1390    3.6770   22.8810 N   0  0  0  0  0  0  0  0  0  0  0  0
   13.3780    3.1710   23.1910 C   0  0  0  0  0  0  0  0  0  0  0  0
   14.3190    3.9210   23.3870 O   0  0  0  0  0  0  0  0  0  0  0  0
   13.4840    1.6390   23.3240 C   0  0  0  0  0  0  0  0  0  0  0  0
   12.1680    0.8970   23.1380 C   0  0  0  0  0  0  0  0  0  0  0  0
   11.9950    0.0610   22.0260 C   0  0  0  0  0  0  0  0  0  0  0  0
   10.7320   -0.4770   21.7520 C   0  0  0  0  0  0  0  0  0  0  0  0
    9.6340   -0.1580   22.5660 C   0  0  0  0  0  0  0  0  0  0  0  0
    8.3200   -0.4370   22.1300 N   0  0  0  0  0  0  0  0  0  0  0  0
    7.8520   -0.1150   20.8820 C   0  0  0  0  0  0  0  0  0  0  0  0
    8.5600    0.2160   19.9510 O   0  0  0  0  0  0  0  0  0  0  0  0
    6.4900   -0.1380   20.7750 N   0  0  0  0  0  0  0  0  0  0  0  0
    5.7870    0.4160   19.6780 C   0  0  0  0  0  0  0  0  0  0  0  0
    4.8440    1.4250   19.9100 C   0  0  0  0  0  0  0  0  0  0  0  0
    4.2940    2.0710   18.7950 C   0  0  0  0  0  0  0  0  0  0  0  0
    4.7040    1.7010   17.5060 C   0  0  0  0  0  0  0  0  0  0  0  0
    5.5780    0.6960   17.2710 N   0  0  0  0  0  0  0  0  0  0  0  0
    6.1190    0.0850   18.3450 C   0  0  0  0  0  0  0  0  0  0  0  0
    9.8300    0.5800   23.7410 C   0  0  0  0  0  0  0  0  0  0  0  0
   11.1010    1.0930   24.0370 C   0  0  0  0  0  0  0  0  0  0  0  0
  1  2  1  0
  2  3  1  0
  3  4  2  0
  3  5  1  0
  5  6  1  0
  6 21  2  0
  6  7  1  0
  7  8  2  0
  8  9  1  0
  9 10  1  0
  9 20  2  0
 10 11  1  0
 11 12  2  0
 11 13  1  0
 13 14  1  0
 14 15  2  0
 14 19  1  0
 15 16  1  0
 16 17  2  0
 17 18  1  0
 18 19  2  0
 20 21  1  0
M  END
>  <original SMILES>  (210) 
CNC(=O)Cc1ccc(NC(=O)Nc2cccnc2)cc1

>  <AutoDock Predicted Affinity>  (210) 
-6.14806

>  <ref_pdb>  (210) 
x0434_0

>  <ref_mols>  (210) 
x0434_0

>  <creator>  (210) 
Will Poole

>  <energy minimised>  (210) 
True

$$$$
WPC0613_minimised.pdb
     RDKit          3D

 22 23  0  0  0  0  0  0  0  0999 V2000
   13.4430    5.3570   22.2890 C   0  0  0  0  0  0  0  0  0  0  0  0
   13.8010    3.9490   22.4270 N   0  0  0  0  0  0  0  0  0  0  0  0
   13.1010    3.0700   23.1960 C   0  0  0  0  0  0  0  0  0  0  0  0
   12.2470    3.3880   24.0000 O   0  0  0  0  0  0  0  0  0  0  0  0
   13.7340    1.8780   23.1040 O   0  0  0  0  0  0  0  0  0  0  0  0
   13.3030    0.7400   23.8540 C   0  0  0  0  0  0  0  0  0  0  0  0
   11.9230    0.2990   23.4200 C   0  0  0  0  0  0  0  0  0  0  0  0
   11.7660   -0.4910   22.2700 C   0  0  0  0  0  0  0  0  0  0  0  0
   10.4790   -0.8300   21.8310 C   0  0  0  0  0  0  0  0  0  0  0  0
    9.3520   -0.3680   22.5270 C   0  0  0  0  0  0  0  0  0  0  0  0
    8.0600   -0.5320   21.9930 N   0  0  0  0  0  0  0  0  0  0  0  0
    7.7060   -0.1900   20.7170 C   0  0  0  0  0  0  0  0  0  0  0  0
    8.4900    0.0560   19.8200 O   0  0  0  0  0  0  0  0  0  0  0  0
    6.3520   -0.0980   20.5600 N   0  0  0  0  0  0  0  0  0  0  0  0
    5.7120    0.5150   19.4590 C   0  0  0  0  0  0  0  0  0  0  0  0
    4.7450    1.4980   19.6980 C   0  0  0  0  0  0  0  0  0  0  0  0
    4.2330    2.1880   18.5920 C   0  0  0  0  0  0  0  0  0  0  0  0
    4.7130    1.8920   17.3090 C   0  0  0  0  0  0  0  0  0  0  0  0
    5.6120    0.9110   17.0650 N   0  0  0  0  0  0  0  0  0  0  0  0
    6.1080    0.2510   18.1300 C   0  0  0  0  0  0  0  0  0  0  0  0
    9.5080    0.3680   23.7090 C   0  0  0  0  0  0  0  0  0  0  0  0
   10.7940    0.6970   24.1600 C   0  0  0  0  0  0  0  0  0  0  0  0
  1  2  1  0
  2  3  1  0
  3  4  2  0
  3  5  1  0
  5  6  1  0
  6  7  1  0
  7 22  2  0
  7  8  1  0
  8  9  2  0
  9 10  1  0
 10 11  1  0
 10 21  2  0
 11 12  1  0
 12 13  2  0
 12 14  1  0
 14 15  1  0
 15 16  2  0
 15 20  1  0
 16 17  1  0
 17 18  2  0
 18 19  1  0
 19 20  2  0
 21 22  1  0
M  END
>  <original SMILES>  (211) 
CNC(=O)OCc1ccc(NC(=O)Nc2cccnc2)cc1

>  <AutoDock Predicted Affinity>  (211) 
-5.78846

>  <ref_pdb>  (211) 
x0434_0

>  <ref_mols>  (211) 
x0434_0

>  <creator>  (211) 
Will Poole

>  <energy minimised>  (211) 
True

$$$$
WPC0947_minimised.pdb
     RDKit          3D

 23 24  0  0  0  0  0  0  0  0999 V2000
    9.8340    3.9920   23.5490 C   0  0  0  0  0  0  0  0  0  0  0  0
   10.9660    4.6970   22.9310 N   0  0  0  0  0  0  0  0  0  0  0  0
   12.2450    4.2250   22.8020 C   0  0  0  0  0  0  0  0  0  0  0  0
   13.3970    5.0670   21.9590 S   0  0  0  0  0  0  0  0  0  0  0  0
   12.4320    2.9720   23.3180 N   0  0  0  0  0  0  0  0  0  0  0  0
   13.5670    2.1070   22.9820 C   0  0  0  0  0  0  0  0  0  0  0  0
   13.4040    0.6940   23.5910 C   0  0  0  0  0  0  0  0  0  0  0  0
   12.0120    0.1310   23.3510 C   0  0  0  0  0  0  0  0  0  0  0  0
   11.7670   -0.6740   22.2280 C   0  0  0  0  0  0  0  0  0  0  0  0
   10.4500   -0.9950   21.8810 C   0  0  0  0  0  0  0  0  0  0  0  0
    9.3780   -0.5060   22.6410 C   0  0  0  0  0  0  0  0  0  0  0  0
    8.0650   -0.5710   22.1350 N   0  0  0  0  0  0  0  0  0  0  0  0
    7.7110   -0.1620   20.8760 C   0  0  0  0  0  0  0  0  0  0  0  0
    8.4970    0.1190   19.9910 O   0  0  0  0  0  0  0  0  0  0  0  0
    6.3590   -0.0560   20.7160 N   0  0  0  0  0  0  0  0  0  0  0  0
    5.7230    0.5280   19.5960 C   0  0  0  0  0  0  0  0  0  0  0  0
    4.7620    1.5250   19.8020 C   0  0  0  0  0  0  0  0  0  0  0  0
    4.2370    2.1630   18.6720 C   0  0  0  0  0  0  0  0  0  0  0  0
    4.6890    1.7990   17.3960 C   0  0  0  0  0  0  0  0  0  0  0  0
    5.5820    0.8060   17.1860 N   0  0  0  0  0  0  0  0  0  0  0  0
    6.1010    0.2030   18.2750 C   0  0  0  0  0  0  0  0  0  0  0  0
    9.6260    0.1770   23.8380 C   0  0  0  0  0  0  0  0  0  0  0  0
   10.9450    0.4820   24.2020 C   0  0  0  0  0  0  0  0  0  0  0  0
  1  2  1  0
  2  3  1  0
  3  4  2  0
  3  5  1  0
  5  6  1  0
  6  7  1  0
  7  8  1  0
  8 23  2  0
  8  9  1  0
  9 10  2  0
 10 11  1  0
 11 12  1  0
 11 22  2  0
 12 13  1  0
 13 14  2  0
 13 15  1  0
 15 16  1  0
 16 17  2  0
 16 21  1  0
 17 18  1  0
 18 19  2  0
 19 20  1  0
 20 21  2  0
 22 23  1  0
M  END
>  <original SMILES>  (212) 
CNC(=S)NCCc1ccc(NC(=O)Nc2cccnc2)cc1

>  <AutoDock Predicted Affinity>  (212) 
-5.751415

>  <ref_pdb>  (212) 
x0434_0

>  <ref_mols>  (212) 
x0434_0

>  <creator>  (212) 
Will Poole

>  <energy minimised>  (212) 
True

$$$$
WPC0509_minimised.pdb
     RDKit          3D

 22 23  0  0  0  0  0  0  0  0999 V2000
   13.5610    5.5040   22.0330 C   0  0  0  0  0  0  0  0  0  0  0  0
   13.9130    4.1120   22.2890 N   0  0  0  0  0  0  0  0  0  0  0  0
   13.1900    3.3160   23.1330 C   0  0  0  0  0  0  0  0  0  0  0  0
   11.9770    3.8870   24.1230 S   0  0  0  0  0  0  0  0  0  0  0  0
   13.6900    2.0420   23.1170 N   0  0  0  0  0  0  0  0  0  0  0  0
   13.2020    0.9130   23.9040 C   0  0  0  0  0  0  0  0  0  0  0  0
   11.8570    0.4030   23.4440 C   0  0  0  0  0  0  0  0  0  0  0  0
   11.7540   -0.4100   22.3030 C   0  0  0  0  0  0  0  0  0  0  0  0
   10.4890   -0.7980   21.8410 C   0  0  0  0  0  0  0  0  0  0  0  0
    9.3310   -0.3640   22.5060 C   0  0  0  0  0  0  0  0  0  0  0  0
    8.0550   -0.5690   21.9490 N   0  0  0  0  0  0  0  0  0  0  0  0
    7.7150   -0.2330   20.6680 C   0  0  0  0  0  0  0  0  0  0  0  0
    8.5060   -0.0060   19.7730 O   0  0  0  0  0  0  0  0  0  0  0  0
    6.3640   -0.1140   20.5100 N   0  0  0  0  0  0  0  0  0  0  0  0
    5.7340    0.5210   19.4160 C   0  0  0  0  0  0  0  0  0  0  0  0
    4.7730    1.5080   19.6650 C   0  0  0  0  0  0  0  0  0  0  0  0
    4.2600    2.2090   18.5670 C   0  0  0  0  0  0  0  0  0  0  0  0
    4.7370    1.9250   17.2800 C   0  0  0  0  0  0  0  0  0  0  0  0
    5.6330    0.9430   17.0260 N   0  0  0  0  0  0  0  0  0  0  0  0
    6.1270    0.2690   18.0840 C   0  0  0  0  0  0  0  0  0  0  0  0
    9.4380    0.3910   23.6800 C   0  0  0  0  0  0  0  0  0  0  0  0
   10.7000    0.7710   24.1530 C   0  0  0  0  0  0  0  0  0  0  0  0
  1  2  1  0
  2  3  1  0
  3  4  2  0
  3  5  1  0
  5  6  1  0
  6  7  1  0
  7 22  2  0
  7  8  1  0
  8  9  2  0
  9 10  1  0
 10 11  1  0
 10 21  2  0
 11 12  1  0
 12 13  2  0
 12 14  1  0
 14 15  1  0
 15 16  2  0
 15 20  1  0
 16 17  1  0
 17 18  2  0
 18 19  1  0
 19 20  2  0
 21 22  1  0
M  END
>  <original SMILES>  (213) 
CNC(=S)NCc1ccc(NC(=O)Nc2cccnc2)cc1

>  <AutoDock Predicted Affinity>  (213) 
-5.62279

>  <ref_pdb>  (213) 
x0434_0

>  <ref_mols>  (213) 
x0434_0

>  <creator>  (213) 
Will Poole

>  <energy minimised>  (213) 
True

$$$$
WPC0675_minimised.pdb
     RDKit          3D

 23 24  0  0  1  0  0  0  0  0999 V2000
   14.5910    4.2690   21.2290 C   0  0  0  0  0  0  0  0  0  0  0  0
   13.8270    5.2180   22.0520 N   0  0  0  0  0  0  0  0  0  0  0  0
   13.2920    4.6690   23.3130 C   0  0  1  0  0  0  0  0  0  0  0  0
   12.3130    5.6950   23.9150 C   0  0  0  0  0  0  0  0  0  0  0  0
   12.6240    3.2580   23.2500 C   0  0  0  0  0  0  0  0  0  0  0  0
   13.5890    2.1300   23.1560 N   0  0  0  0  0  0  0  0  0  0  0  0
   13.2070    0.8610   23.8110 C   0  0  0  0  0  0  0  0  0  0  0  0
   11.8020    0.3790   23.4880 C   0  0  0  0  0  0  0  0  0  0  0  0
   11.6030   -0.5640   22.4680 C   0  0  0  0  0  0  0  0  0  0  0  0
   10.3030   -0.8910   22.0570 C   0  0  0  0  0  0  0  0  0  0  0  0
    9.1990   -0.2980   22.6880 C   0  0  0  0  0  0  0  0  0  0  0  0
    7.9030   -0.4380   22.1540 N   0  0  0  0  0  0  0  0  0  0  0  0
    7.5760   -0.1240   20.8630 C   0  0  0  0  0  0  0  0  0  0  0  0
    8.3770    0.0590   19.9680 O   0  0  0  0  0  0  0  0  0  0  0  0
    6.2300    0.0220   20.6850 N   0  0  0  0  0  0  0  0  0  0  0  0
    5.6220    0.6030   19.5470 C   0  0  0  0  0  0  0  0  0  0  0  0
    4.6630    1.6060   19.7340 C   0  0  0  0  0  0  0  0  0  0  0  0
    4.1680    2.2510   18.5940 C   0  0  0  0  0  0  0  0  0  0  0  0
    4.6470    1.8860   17.3280 C   0  0  0  0  0  0  0  0  0  0  0  0
    5.5380    0.8870   17.1360 N   0  0  0  0  0  0  0  0  0  0  0  0
    6.0270    0.2770   18.2340 C   0  0  0  0  0  0  0  0  0  0  0  0
    9.3920    0.5380   23.7950 C   0  0  0  0  0  0  0  0  0  0  0  0
   10.6920    0.8700   24.2020 C   0  0  0  0  0  0  0  0  0  0  0  0
  1  2  1  0
  2  3  1  0
  3  4  1  6
  3  5  1  0
  5  6  1  0
  6  7  1  0
  7  8  1  0
  8 23  2  0
  8  9  1  0
  9 10  2  0
 10 11  1  0
 11 12  1  0
 11 22  2  0
 12 13  1  0
 13 14  2  0
 13 15  1  0
 15 16  1  0
 16 17  2  0
 16 21  1  0
 17 18  1  0
 18 19  2  0
 19 20  1  0
 20 21  2  0
 22 23  1  0
M  END
>  <original SMILES>  (214) 
CNC(C)CNCc1ccc(NC(=O)Nc2cccnc2)cc1

>  <AutoDock Predicted Affinity>  (214) 
-6.00163

>  <ref_pdb>  (214) 
x0434_0

>  <ref_mols>  (214) 
x0434_0

>  <creator>  (214) 
Will Poole

>  <energy minimised>  (214) 
True

$$$$
WPC0899_minimised.pdb
     RDKit          3D

 21 22  0  0  1  0  0  0  0  0999 V2000
   12.6920    3.5620   22.7440 C   0  0  0  0  0  0  0  0  0  0  0  0
   12.4930    2.3530   23.5580 N   0  0  0  0  0  0  0  0  0  0  0  0
   13.4350    1.2600   23.2610 C   0  0  0  0  0  0  0  0  0  0  0  0
   13.0330   -0.0570   23.9720 C   0  0  2  0  0  0  0  0  0  0  0  0
   14.0560   -1.1750   23.6840 C   0  0  0  0  0  0  0  0  0  0  0  0
   11.6110   -0.4320   23.5790 C   0  0  0  0  0  0  0  0  0  0  0  0
   11.3520   -1.0970   22.3670 C   0  0  0  0  0  0  0  0  0  0  0  0
   10.0370   -1.2270   21.9090 C   0  0  0  0  0  0  0  0  0  0  0  0
    8.9780   -0.6710   22.6390 C   0  0  0  0  0  0  0  0  0  0  0  0
    7.6940   -0.5800   22.0660 N   0  0  0  0  0  0  0  0  0  0  0  0
    7.4400   -0.1360   20.7950 C   0  0  0  0  0  0  0  0  0  0  0  0
    8.2840    0.0740   19.9440 O   0  0  0  0  0  0  0  0  0  0  0  0
    6.1080    0.0780   20.5850 N   0  0  0  0  0  0  0  0  0  0  0  0
    5.5440    0.6870   19.4420 C   0  0  0  0  0  0  0  0  0  0  0  0
    4.5740    1.6810   19.6140 C   0  0  0  0  0  0  0  0  0  0  0  0
    4.1130    2.3420   18.4700 C   0  0  0  0  0  0  0  0  0  0  0  0
    4.6380    2.0050   17.2150 C   0  0  0  0  0  0  0  0  0  0  0  0
    5.5380    1.0110   17.0340 N   0  0  0  0  0  0  0  0  0  0  0  0
    5.9900    0.3830   18.1370 C   0  0  0  0  0  0  0  0  0  0  0  0
    9.2190   -0.0890   23.8910 C   0  0  0  0  0  0  0  0  0  0  0  0
   10.5350    0.0240   24.3650 C   0  0  0  0  0  0  0  0  0  0  0  0
  1  2  1  0
  2  3  1  0
  3  4  1  0
  4  5  1  6
  4  6  1  0
  6 21  2  0
  6  7  1  0
  7  8  2  0
  8  9  1  0
  9 10  1  0
  9 20  2  0
 10 11  1  0
 11 12  2  0
 11 13  1  0
 13 14  1  0
 14 15  2  0
 14 19  1  0
 15 16  1  0
 16 17  2  0
 17 18  1  0
 18 19  2  0
 20 21  1  0
M  END
>  <original SMILES>  (215) 
CNCC(C)c1ccc(NC(=O)Nc2cccnc2)cc1

>  <AutoDock Predicted Affinity>  (215) 
-6.249165

>  <ref_pdb>  (215) 
x0434_0

>  <ref_mols>  (215) 
x0434_0

>  <creator>  (215) 
Will Poole

>  <energy minimised>  (215) 
True

$$$$
WPC1067_minimised.pdb
     RDKit          3D

 21 22  0  0  1  0  0  0  0  0999 V2000
   13.1710    4.7310   22.5930 C   0  0  0  0  0  0  0  0  0  0  0  0
   12.8300    3.4510   23.2320 N   0  0  0  0  0  0  0  0  0  0  0  0
   13.6580    2.3260   22.7500 C   0  0  0  0  0  0  0  0  0  0  0  0
   13.3610    0.9950   23.4850 C   0  0  2  0  0  0  0  0  0  0  0  0
   14.3430    0.0070   23.1650 O   0  0  0  0  0  0  0  0  0  0  0  0
   11.9560    0.4930   23.1940 C   0  0  0  0  0  0  0  0  0  0  0  0
   11.7110   -0.4500   22.1770 C   0  0  0  0  0  0  0  0  0  0  0  0
   10.3970   -0.8100   21.8600 C   0  0  0  0  0  0  0  0  0  0  0  0
    9.3220   -0.2200   22.5370 C   0  0  0  0  0  0  0  0  0  0  0  0
    8.0100   -0.3930   22.0590 N   0  0  0  0  0  0  0  0  0  0  0  0
    7.6380   -0.1190   20.7710 C   0  0  0  0  0  0  0  0  0  0  0  0
    8.4160    0.0770   19.8560 O   0  0  0  0  0  0  0  0  0  0  0  0
    6.2830   -0.0280   20.6230 N   0  0  0  0  0  0  0  0  0  0  0  0
    5.6410    0.5530   19.5050 C   0  0  0  0  0  0  0  0  0  0  0  0
    4.6770    1.5440   19.7230 C   0  0  0  0  0  0  0  0  0  0  0  0
    4.1640    2.2090   18.6020 C   0  0  0  0  0  0  0  0  0  0  0  0
    4.6390    1.8800   17.3250 C   0  0  0  0  0  0  0  0  0  0  0  0
    5.5320    0.8880   17.1020 N   0  0  0  0  0  0  0  0  0  0  0  0
    6.0310    0.2540   18.1820 C   0  0  0  0  0  0  0  0  0  0  0  0
    9.5580    0.6620   23.5990 C   0  0  0  0  0  0  0  0  0  0  0  0
   10.8740    1.0120   23.9320 C   0  0  0  0  0  0  0  0  0  0  0  0
  1  2  1  0
  2  3  1  0
  3  4  1  0
  4  5  1  6
  4  6  1  0
  6 21  2  0
  6  7  1  0
  7  8  2  0
  8  9  1  0
  9 10  1  0
  9 20  2  0
 10 11  1  0
 11 12  2  0
 11 13  1  0
 13 14  1  0
 14 15  2  0
 14 19  1  0
 15 16  1  0
 16 17  2  0
 17 18  1  0
 18 19  2  0
 20 21  1  0
M  END
>  <original SMILES>  (216) 
CNCC(O)c1ccc(NC(=O)Nc2cccnc2)cc1

>  <AutoDock Predicted Affinity>  (216) 
-5.72634

>  <ref_pdb>  (216) 
x0434_0

>  <ref_mols>  (216) 
x0434_0

>  <creator>  (216) 
Will Poole

>  <energy minimised>  (216) 
True

$$$$
WPC0410_minimised.pdb
     RDKit          3D

 20 21  0  0  0  0  0  0  0  0999 V2000
   12.9490    4.9530   22.8480 C   0  0  0  0  0  0  0  0  0  0  0  0
   12.8240    3.5870   23.3720 N   0  0  0  0  0  0  0  0  0  0  0  0
   13.7620    2.6420   22.7460 C   0  0  0  0  0  0  0  0  0  0  0  0
   13.5870    1.1930   23.2570 C   0  0  0  0  0  0  0  0  0  0  0  0
   12.1950    0.6400   23.0220 C   0  0  0  0  0  0  0  0  0  0  0  0
   11.9600   -0.2420   21.9570 C   0  0  0  0  0  0  0  0  0  0  0  0
   10.6550   -0.6770   21.6910 C   0  0  0  0  0  0  0  0  0  0  0  0
    9.5800   -0.2140   22.4670 C   0  0  0  0  0  0  0  0  0  0  0  0
    8.2530   -0.4440   22.0500 N   0  0  0  0  0  0  0  0  0  0  0  0
    7.7970   -0.1470   20.7930 C   0  0  0  0  0  0  0  0  0  0  0  0
    8.5200    0.1320   19.8560 O   0  0  0  0  0  0  0  0  0  0  0  0
    6.4330   -0.1330   20.6880 N   0  0  0  0  0  0  0  0  0  0  0  0
    5.7420    0.4370   19.5930 C   0  0  0  0  0  0  0  0  0  0  0  0
    4.7920    1.4370   19.8360 C   0  0  0  0  0  0  0  0  0  0  0  0
    4.2550    2.1050   18.7280 C   0  0  0  0  0  0  0  0  0  0  0  0
    4.6920    1.7720   17.4380 C   0  0  0  0  0  0  0  0  0  0  0  0
    5.5690    0.7730   17.1920 N   0  0  0  0  0  0  0  0  0  0  0  0
    6.0910    0.1350   18.2590 C   0  0  0  0  0  0  0  0  0  0  0  0
    9.8230    0.6020   23.5790 C   0  0  0  0  0  0  0  0  0  0  0  0
   11.1310    1.0180   23.8640 C   0  0  0  0  0  0  0  0  0  0  0  0
  1  2  1  0
  2  3  1  0
  3  4  1  0
  4  5  1  0
  5 20  2  0
  5  6  1  0
  6  7  2  0
  7  8  1  0
  8  9  1  0
  8 19  2  0
  9 10  1  0
 10 11  2  0
 10 12  1  0
 12 13  1  0
 13 14  2  0
 13 18  1  0
 14 15  1  0
 15 16  2  0
 16 17  1  0
 17 18  2  0
 19 20  1  0
M  END
>  <original SMILES>  (217) 
CNCCc1ccc(NC(=O)Nc2cccnc2)cc1

>  <AutoDock Predicted Affinity>  (217) 
-5.811362

>  <ref_pdb>  (217) 
x0434_0

>  <ref_mols>  (217) 
x0434_0

>  <creator>  (217) 
Will Poole

>  <energy minimised>  (217) 
True

$$$$
WPC0647_minimised.pdb
     RDKit          3D

 19 20  0  0  0  0  0  0  0  0999 V2000
   12.6880    3.2600   22.9780 C   0  0  0  0  0  0  0  0  0  0  0  0
   13.6920    2.1800   22.9930 N   0  0  0  0  0  0  0  0  0  0  0  0
   13.3430    0.9300   23.6880 C   0  0  0  0  0  0  0  0  0  0  0  0
   11.9730    0.3990   23.3270 C   0  0  0  0  0  0  0  0  0  0  0  0
   11.8130   -0.4230   22.2010 C   0  0  0  0  0  0  0  0  0  0  0  0
   10.5280   -0.8210   21.8100 C   0  0  0  0  0  0  0  0  0  0  0  0
    9.4050   -0.3850   22.5280 C   0  0  0  0  0  0  0  0  0  0  0  0
    8.1080   -0.5760   22.0150 N   0  0  0  0  0  0  0  0  0  0  0  0
    7.7330   -0.2250   20.7460 C   0  0  0  0  0  0  0  0  0  0  0  0
    8.5050    0.0520   19.8480 O   0  0  0  0  0  0  0  0  0  0  0  0
    6.3760   -0.1530   20.5990 N   0  0  0  0  0  0  0  0  0  0  0  0
    5.7270    0.4580   19.5030 C   0  0  0  0  0  0  0  0  0  0  0  0
    4.7630    1.4440   19.7480 C   0  0  0  0  0  0  0  0  0  0  0  0
    4.2450    2.1350   18.6460 C   0  0  0  0  0  0  0  0  0  0  0  0
    4.7140    1.8370   17.3590 C   0  0  0  0  0  0  0  0  0  0  0  0
    5.6090    0.8550   17.1090 N   0  0  0  0  0  0  0  0  0  0  0  0
    6.1130    0.1950   18.1710 C   0  0  0  0  0  0  0  0  0  0  0  0
    9.5680    0.3700   23.6970 C   0  0  0  0  0  0  0  0  0  0  0  0
   10.8530    0.7570   24.1020 C   0  0  0  0  0  0  0  0  0  0  0  0
  1  2  1  0
  2  3  1  0
  3  4  1  0
  4 19  2  0
  4  5  1  0
  5  6  2  0
  6  7  1  0
  7  8  1  0
  7 18  2  0
  8  9  1  0
  9 10  2  0
  9 11  1  0
 11 12  1  0
 12 13  2  0
 12 17  1  0
 13 14  1  0
 14 15  2  0
 15 16  1  0
 16 17  2  0
 18 19  1  0
M  END
>  <original SMILES>  (218) 
CNCc1ccc(NC(=O)Nc2cccnc2)cc1

>  <AutoDock Predicted Affinity>  (218) 
-5.457965

>  <ref_pdb>  (218) 
x0434_0

>  <ref_mols>  (218) 
x0434_0

>  <creator>  (218) 
Will Poole

>  <energy minimised>  (218) 
True

$$$$
WPC0552_minimised.pdb
     RDKit          3D

 22 23  0  0  0  0  0  0  0  0999 V2000
   12.7630    5.4060   23.7530 C   0  0  0  0  0  0  0  0  0  0  0  0
   13.4180    4.1360   23.5940 O   0  0  0  0  0  0  0  0  0  0  0  0
   13.4250    3.5760   22.3510 C   0  0  0  0  0  0  0  0  0  0  0  0
   13.0020    4.1450   21.3630 O   0  0  0  0  0  0  0  0  0  0  0  0
   14.2480    2.2860   22.2930 C   0  0  0  0  0  0  0  0  0  0  0  0
   13.7870    1.1500   23.2310 C   0  0  0  0  0  0  0  0  0  0  0  0
   12.3640    0.7120   22.9710 C   0  0  0  0  0  0  0  0  0  0  0  0
   12.0950   -0.2900   22.0260 C   0  0  0  0  0  0  0  0  0  0  0  0
   10.7690   -0.6630   21.7680 C   0  0  0  0  0  0  0  0  0  0  0  0
    9.7130   -0.0250   22.4360 C   0  0  0  0  0  0  0  0  0  0  0  0
    8.3800   -0.2670   22.0530 N   0  0  0  0  0  0  0  0  0  0  0  0
    7.9150   -0.0850   20.7800 C   0  0  0  0  0  0  0  0  0  0  0  0
    8.6290    0.0930   19.8130 O   0  0  0  0  0  0  0  0  0  0  0  0
    6.5500   -0.0570   20.7020 N   0  0  0  0  0  0  0  0  0  0  0  0
    5.8330    0.4680   19.6020 C   0  0  0  0  0  0  0  0  0  0  0  0
    4.8680    1.4550   19.8390 C   0  0  0  0  0  0  0  0  0  0  0  0
    4.2880    2.0770   18.7270 C   0  0  0  0  0  0  0  0  0  0  0  0
    4.7010    1.7140   17.4370 C   0  0  0  0  0  0  0  0  0  0  0  0
    5.5910    0.7260   17.1980 N   0  0  0  0  0  0  0  0  0  0  0  0
    6.1550    0.1320   18.2690 C   0  0  0  0  0  0  0  0  0  0  0  0
    9.9820    0.9460   23.4090 C   0  0  0  0  0  0  0  0  0  0  0  0
   11.3080    1.3120   23.6800 C   0  0  0  0  0  0  0  0  0  0  0  0
  1  2  1  0
  2  3  1  0
  3  4  2  0
  3  5  1  0
  5  6  1  0
  6  7  1  0
  7 22  2  0
  7  8  1  0
  8  9  2  0
  9 10  1  0
 10 11  1  0
 10 21  2  0
 11 12  1  0
 12 13  2  0
 12 14  1  0
 14 15  1  0
 15 16  2  0
 15 20  1  0
 16 17  1  0
 17 18  2  0
 18 19  1  0
 19 20  2  0
 21 22  1  0
M  END
>  <original SMILES>  (219) 
COC(=O)CCc1ccc(NC(=O)Nc2cccnc2)cc1

>  <AutoDock Predicted Affinity>  (219) 
-5.963797

>  <ref_pdb>  (219) 
x0434_0

>  <ref_mols>  (219) 
x0434_0

>  <creator>  (219) 
Will Poole

>  <energy minimised>  (219) 
True

$$$$
WPC1045_minimised.pdb
     RDKit          3D

 22 23  0  0  0  0  0  0  0  0999 V2000
   12.3650    6.5880   25.0570 C   0  0  0  0  0  0  0  0  0  0  0  0
   12.7480    5.5370   24.1540 O   0  0  0  0  0  0  0  0  0  0  0  0
   11.9060    4.4780   23.9820 C   0  0  0  0  0  0  0  0  0  0  0  0
   10.8490    4.3450   24.5750 O   0  0  0  0  0  0  0  0  0  0  0  0
   12.4370    3.5300   22.9150 C   0  0  0  0  0  0  0  0  0  0  0  0
   13.0250    1.9050   23.5870 S   0  0  0  0  0  0  0  0  0  0  0  0
   11.6070    0.8850   23.3370 C   0  0  0  0  0  0  0  0  0  0  0  0
   11.6260   -0.0500   22.2940 C   0  0  0  0  0  0  0  0  0  0  0  0
   10.4390   -0.6920   21.9230 C   0  0  0  0  0  0  0  0  0  0  0  0
    9.2400   -0.3740   22.5800 C   0  0  0  0  0  0  0  0  0  0  0  0
    8.0030   -0.7270   22.0110 N   0  0  0  0  0  0  0  0  0  0  0  0
    7.6640   -0.3830   20.7310 C   0  0  0  0  0  0  0  0  0  0  0  0
    8.4590   -0.0950   19.8550 O   0  0  0  0  0  0  0  0  0  0  0  0
    6.3140   -0.3040   20.5490 N   0  0  0  0  0  0  0  0  0  0  0  0
    5.7020    0.3710   19.4680 C   0  0  0  0  0  0  0  0  0  0  0  0
    4.7670    1.3780   19.7350 C   0  0  0  0  0  0  0  0  0  0  0  0
    4.2850    2.1230   18.6500 C   0  0  0  0  0  0  0  0  0  0  0  0
    4.7660    1.8580   17.3600 C   0  0  0  0  0  0  0  0  0  0  0  0
    5.6430    0.8650   17.0910 N   0  0  0  0  0  0  0  0  0  0  0  0
    6.1060    0.1480   18.1350 C   0  0  0  0  0  0  0  0  0  0  0  0
    9.2470    0.4790   23.6940 C   0  0  0  0  0  0  0  0  0  0  0  0
   10.4390    1.1080   24.0800 C   0  0  0  0  0  0  0  0  0  0  0  0
  1  2  1  0
  2  3  1  0
  3  4  2  0
  3  5  1  0
  5  6  1  0
  6  7  1  0
  7 22  2  0
  7  8  1  0
  8  9  2  0
  9 10  1  0
 10 11  1  0
 10 21  2  0
 11 12  1  0
 12 13  2  0
 12 14  1  0
 14 15  1  0
 15 16  2  0
 15 20  1  0
 16 17  1  0
 17 18  2  0
 18 19  1  0
 19 20  2  0
 21 22  1  0
M  END
>  <original SMILES>  (220) 
COC(=O)CSc1ccc(NC(=O)Nc2cccnc2)cc1

>  <AutoDock Predicted Affinity>  (220) 
-5.205043

>  <ref_pdb>  (220) 
x0434_0

>  <ref_mols>  (220) 
x0434_0

>  <creator>  (220) 
Will Poole

>  <energy minimised>  (220) 
True

$$$$
WPC0824_minimised.pdb
     RDKit          3D

 21 22  0  0  0  0  0  0  0  0999 V2000
   11.6020    4.9710   23.3580 C   0  0  0  0  0  0  0  0  0  0  0  0
   11.8330    3.5680   23.5720 O   0  0  0  0  0  0  0  0  0  0  0  0
   13.0640    3.0590   23.2780 C   0  0  0  0  0  0  0  0  0  0  0  0
   14.0440    3.7720   23.1350 O   0  0  0  0  0  0  0  0  0  0  0  0
   13.1590    1.5440   23.5420 C   0  0  0  0  0  0  0  0  0  0  0  0
   11.8900    0.7650   23.2370 C   0  0  0  0  0  0  0  0  0  0  0  0
   11.8310   -0.0770   22.1160 C   0  0  0  0  0  0  0  0  0  0  0  0
   10.6130   -0.6700   21.7590 C   0  0  0  0  0  0  0  0  0  0  0  0
    9.4530   -0.4070   22.5020 C   0  0  0  0  0  0  0  0  0  0  0  0
    8.1790   -0.7250   21.9880 N   0  0  0  0  0  0  0  0  0  0  0  0
    7.7710   -0.3710   20.7290 C   0  0  0  0  0  0  0  0  0  0  0  0
    8.5170   -0.0750   19.8160 O   0  0  0  0  0  0  0  0  0  0  0  0
    6.4120   -0.3050   20.6060 N   0  0  0  0  0  0  0  0  0  0  0  0
    5.7520    0.3380   19.5320 C   0  0  0  0  0  0  0  0  0  0  0  0
    4.8250    1.3520   19.8080 C   0  0  0  0  0  0  0  0  0  0  0  0
    4.3020    2.0690   18.7240 C   0  0  0  0  0  0  0  0  0  0  0  0
    4.7300    1.7690   17.4220 C   0  0  0  0  0  0  0  0  0  0  0  0
    5.5930    0.7660   17.1450 N   0  0  0  0  0  0  0  0  0  0  0  0
    6.1020    0.0810   18.1880 C   0  0  0  0  0  0  0  0  0  0  0  0
    9.5370    0.3350   23.6880 C   0  0  0  0  0  0  0  0  0  0  0  0
   10.7590    0.9060   24.0650 C   0  0  0  0  0  0  0  0  0  0  0  0
  1  2  1  0
  2  3  1  0
  3  4  2  0
  3  5  1  0
  5  6  1  0
  6 21  2  0
  6  7  1  0
  7  8  2  0
  8  9  1  0
  9 10  1  0
  9 20  2  0
 10 11  1  0
 11 12  2  0
 11 13  1  0
 13 14  1  0
 14 15  2  0
 14 19  1  0
 15 16  1  0
 16 17  2  0
 17 18  1  0
 18 19  2  0
 20 21  1  0
M  END
>  <original SMILES>  (221) 
COC(=O)Cc1ccc(NC(=O)Nc2cccnc2)cc1

>  <AutoDock Predicted Affinity>  (221) 
-5.84275

>  <ref_pdb>  (221) 
x0434_0

>  <ref_mols>  (221) 
x0434_0

>  <creator>  (221) 
Will Poole

>  <energy minimised>  (221) 
True

$$$$
WPC0708_minimised.pdb
     RDKit          3D

 22 23  0  0  0  0  0  0  0  0999 V2000
   13.4470    5.4050   22.1580 C   0  0  0  0  0  0  0  0  0  0  0  0
   13.9130    4.0530   22.2130 O   0  0  0  0  0  0  0  0  0  0  0  0
   13.2570    3.2100   23.0430 C   0  0  0  0  0  0  0  0  0  0  0  0
   12.4140    3.5270   23.8610 O   0  0  0  0  0  0  0  0  0  0  0  0
   13.8520    1.9870   22.9440 N   0  0  0  0  0  0  0  0  0  0  0  0
   13.4490    0.7810   23.6650 C   0  0  0  0  0  0  0  0  0  0  0  0
   12.0570    0.3190   23.2950 C   0  0  0  0  0  0  0  0  0  0  0  0
   11.8630   -0.5610   22.2180 C   0  0  0  0  0  0  0  0  0  0  0  0
   10.5610   -0.9050   21.8290 C   0  0  0  0  0  0  0  0  0  0  0  0
    9.4570   -0.3640   22.5050 C   0  0  0  0  0  0  0  0  0  0  0  0
    8.1530   -0.5370   22.0030 N   0  0  0  0  0  0  0  0  0  0  0  0
    7.7800   -0.2120   20.7280 C   0  0  0  0  0  0  0  0  0  0  0  0
    8.5530    0.0210   19.8190 O   0  0  0  0  0  0  0  0  0  0  0  0
    6.4240   -0.1160   20.5870 N   0  0  0  0  0  0  0  0  0  0  0  0
    5.7710    0.4890   19.4890 C   0  0  0  0  0  0  0  0  0  0  0  0
    4.8030    1.4710   19.7350 C   0  0  0  0  0  0  0  0  0  0  0  0
    4.2720    2.1510   18.6330 C   0  0  0  0  0  0  0  0  0  0  0  0
    4.7330    1.8490   17.3440 C   0  0  0  0  0  0  0  0  0  0  0  0
    5.6310    0.8680   17.0940 N   0  0  0  0  0  0  0  0  0  0  0  0
    6.1460    0.2180   18.1560 C   0  0  0  0  0  0  0  0  0  0  0  0
    9.6500    0.4600   23.6200 C   0  0  0  0  0  0  0  0  0  0  0  0
   10.9500    0.7980   24.0180 C   0  0  0  0  0  0  0  0  0  0  0  0
  1  2  1  0
  2  3  1  0
  3  4  2  0
  3  5  1  0
  5  6  1  0
  6  7  1  0
  7 22  2  0
  7  8  1  0
  8  9  2  0
  9 10  1  0
 10 11  1  0
 10 21  2  0
 11 12  1  0
 12 13  2  0
 12 14  1  0
 14 15  1  0
 15 16  2  0
 15 20  1  0
 16 17  1  0
 17 18  2  0
 18 19  1  0
 19 20  2  0
 21 22  1  0
M  END
>  <original SMILES>  (222) 
COC(=O)NCc1ccc(NC(=O)Nc2cccnc2)cc1

>  <AutoDock Predicted Affinity>  (222) 
-6.205405

>  <ref_pdb>  (222) 
x0434_0

>  <ref_mols>  (222) 
x0434_0

>  <creator>  (222) 
Will Poole

>  <energy minimised>  (222) 
True

$$$$
WPC0451_minimised.pdb
     RDKit          3D

 24 25  0  0  0  0  0  0  0  0999 V2000
    9.1380    4.6810   23.2400 C   0  0  0  0  0  0  0  0  0  0  0  0
   10.0730    4.8000   24.3310 O   0  0  0  0  0  0  0  0  0  0  0  0
   11.2160    5.6570   24.1040 C   0  0  0  0  0  0  0  0  0  0  0  0
   12.0260    5.2380   22.8540 C   0  0  0  0  0  0  0  0  0  0  0  0
   12.3520    3.8130   22.8090 N   0  0  0  0  0  0  0  0  0  0  0  0
   13.5690    3.2870   23.1610 C   0  0  0  0  0  0  0  0  0  0  0  0
   14.4970    4.0200   23.4570 O   0  0  0  0  0  0  0  0  0  0  0  0
   13.6550    1.7500   23.2180 C   0  0  0  0  0  0  0  0  0  0  0  0
   12.3130    1.0390   23.0890 C   0  0  0  0  0  0  0  0  0  0  0  0
   12.0960    0.1630   22.0160 C   0  0  0  0  0  0  0  0  0  0  0  0
   10.8120   -0.3450   21.7820 C   0  0  0  0  0  0  0  0  0  0  0  0
    9.7380    0.0390   22.6000 C   0  0  0  0  0  0  0  0  0  0  0  0
    8.4100   -0.2320   22.2040 N   0  0  0  0  0  0  0  0  0  0  0  0
    7.9190    0.0560   20.9570 C   0  0  0  0  0  0  0  0  0  0  0  0
    8.6120    0.3830   20.0120 O   0  0  0  0  0  0  0  0  0  0  0  0
    6.5570   -0.0060   20.8580 N   0  0  0  0  0  0  0  0  0  0  0  0
    5.8370    0.4910   19.7440 C   0  0  0  0  0  0  0  0  0  0  0  0
    4.8810    1.4940   19.9460 C   0  0  0  0  0  0  0  0  0  0  0  0
    4.3180    2.0930   18.8120 C   0  0  0  0  0  0  0  0  0  0  0  0
    4.7280    1.6830   17.5350 C   0  0  0  0  0  0  0  0  0  0  0  0
    5.6110    0.6800   17.3300 N   0  0  0  0  0  0  0  0  0  0  0  0
    6.1650    0.1160   18.4230 C   0  0  0  0  0  0  0  0  0  0  0  0
    9.9750    0.8240   23.7380 C   0  0  0  0  0  0  0  0  0  0  0  0
   11.2660    1.3090   23.9930 C   0  0  0  0  0  0  0  0  0  0  0  0
  1  2  1  0
  2  3  1  0
  3  4  1  0
  4  5  1  0
  5  6  1  0
  6  7  2  0
  6  8  1  0
  8  9  1  0
  9 24  2  0
  9 10  1  0
 10 11  2  0
 11 12  1  0
 12 13  1  0
 12 23  2  0
 13 14  1  0
 14 15  2  0
 14 16  1  0
 16 17  1  0
 17 18  2  0
 17 22  1  0
 18 19  1  0
 19 20  2  0
 20 21  1  0
 21 22  2  0
 23 24  1  0
M  END
>  <original SMILES>  (223) 
COCCNC(=O)Cc1ccc(NC(=O)Nc2cccnc2)cc1

>  <AutoDock Predicted Affinity>  (223) 
-5.64792

>  <ref_pdb>  (223) 
x0434_0

>  <ref_mols>  (223) 
x0434_0

>  <creator>  (223) 
Will Poole

>  <energy minimised>  (223) 
True

$$$$
WPC0411_minimised.pdb
     RDKit          3D

 22 23  0  0  0  0  0  0  0  0999 V2000
   13.7720    5.7490   22.1330 C   0  0  0  0  0  0  0  0  0  0  0  0
   14.9970    5.0900   21.8020 O   0  0  0  0  0  0  0  0  0  0  0  0
   14.8810    3.7280   21.3500 C   0  0  0  0  0  0  0  0  0  0  0  0
   14.2060    2.8500   22.4240 C   0  0  0  0  0  0  0  0  0  0  0  0
   14.7050    1.4650   22.3860 N   0  0  0  0  0  0  0  0  0  0  0  0
   14.0420    0.5050   23.2850 C   0  0  0  0  0  0  0  0  0  0  0  0
   12.5490    0.3340   23.0480 C   0  0  0  0  0  0  0  0  0  0  0  0
   12.0810   -0.7020   22.2220 C   0  0  0  0  0  0  0  0  0  0  0  0
   10.7080   -0.8460   21.9760 C   0  0  0  0  0  0  0  0  0  0  0  0
    9.7890    0.0280   22.5770 C   0  0  0  0  0  0  0  0  0  0  0  0
    8.4200   -0.0400   22.2450 N   0  0  0  0  0  0  0  0  0  0  0  0
    7.9290    0.1590   20.9840 C   0  0  0  0  0  0  0  0  0  0  0  0
    8.6310    0.3130   20.0060 O   0  0  0  0  0  0  0  0  0  0  0  0
    6.5630    0.2070   20.9090 N   0  0  0  0  0  0  0  0  0  0  0  0
    5.8420    0.6440   19.7700 C   0  0  0  0  0  0  0  0  0  0  0  0
    4.8640    1.6330   19.9330 C   0  0  0  0  0  0  0  0  0  0  0  0
    4.2800    2.1670   18.7780 C   0  0  0  0  0  0  0  0  0  0  0  0
    4.6910    1.7100   17.5170 C   0  0  0  0  0  0  0  0  0  0  0  0
    5.5860    0.7100   17.3500 N   0  0  0  0  0  0  0  0  0  0  0  0
    6.1620    0.2090   18.4630 C   0  0  0  0  0  0  0  0  0  0  0  0
   10.2450    1.0260   23.4510 C   0  0  0  0  0  0  0  0  0  0  0  0
   11.6200    1.1780   23.6860 C   0  0  0  0  0  0  0  0  0  0  0  0
  1  2  1  0
  2  3  1  0
  3  4  1  0
  4  5  1  0
  5  6  1  0
  6  7  1  0
  7 22  2  0
  7  8  1  0
  8  9  2  0
  9 10  1  0
 10 11  1  0
 10 21  2  0
 11 12  1  0
 12 13  2  0
 12 14  1  0
 14 15  1  0
 15 16  2  0
 15 20  1  0
 16 17  1  0
 17 18  2  0
 18 19  1  0
 19 20  2  0
 21 22  1  0
M  END
>  <original SMILES>  (224) 
COCCNCc1ccc(NC(=O)Nc2cccnc2)cc1

>  <AutoDock Predicted Affinity>  (224) 
-5.88198

>  <ref_pdb>  (224) 
x0434_0

>  <ref_mols>  (224) 
x0434_0

>  <creator>  (224) 
Will Poole

>  <energy minimised>  (224) 
True

$$$$
WPC0720_minimised.pdb
     RDKit          3D

 20 21  0  0  0  0  0  0  0  0999 V2000
   13.5410    4.7930   22.6170 C   0  0  0  0  0  0  0  0  0  0  0  0
   13.4790    3.4860   23.2090 O   0  0  0  0  0  0  0  0  0  0  0  0
   14.1250    2.4540   22.4430 C   0  0  0  0  0  0  0  0  0  0  0  0
   13.8350    1.0710   23.0630 C   0  0  0  0  0  0  0  0  0  0  0  0
   12.3940    0.6330   22.8800 C   0  0  0  0  0  0  0  0  0  0  0  0
   12.0750   -0.3740   21.9530 C   0  0  0  0  0  0  0  0  0  0  0  0
   10.7360   -0.7240   21.7360 C   0  0  0  0  0  0  0  0  0  0  0  0
    9.7110   -0.0620   22.4280 C   0  0  0  0  0  0  0  0  0  0  0  0
    8.3650   -0.2570   22.0570 N   0  0  0  0  0  0  0  0  0  0  0  0
    7.8970   -0.0410   20.7890 C   0  0  0  0  0  0  0  0  0  0  0  0
    8.6130    0.1370   19.8230 O   0  0  0  0  0  0  0  0  0  0  0  0
    6.5330    0.0160   20.7080 N   0  0  0  0  0  0  0  0  0  0  0  0
    5.8300    0.5440   19.5990 C   0  0  0  0  0  0  0  0  0  0  0  0
    4.8670    1.5350   19.8220 C   0  0  0  0  0  0  0  0  0  0  0  0
    4.3080    2.1640   18.7020 C   0  0  0  0  0  0  0  0  0  0  0  0
    4.7400    1.8040   17.4180 C   0  0  0  0  0  0  0  0  0  0  0  0
    5.6250    0.8070   17.1900 N   0  0  0  0  0  0  0  0  0  0  0  0
    6.1670    0.2060   18.2690 C   0  0  0  0  0  0  0  0  0  0  0  0
   10.0280    0.9000   23.3960 C   0  0  0  0  0  0  0  0  0  0  0  0
   11.3680    1.2430   23.6250 C   0  0  0  0  0  0  0  0  0  0  0  0
  1  2  1  0
  2  3  1  0
  3  4  1  0
  4  5  1  0
  5 20  2  0
  5  6  1  0
  6  7  2  0
  7  8  1  0
  8  9  1  0
  8 19  2  0
  9 10  1  0
 10 11  2  0
 10 12  1  0
 12 13  1  0
 13 14  2  0
 13 18  1  0
 14 15  1  0
 15 16  2  0
 16 17  1  0
 17 18  2  0
 19 20  1  0
M  END
>  <original SMILES>  (225) 
COCCc1ccc(NC(=O)Nc2cccnc2)cc1

>  <AutoDock Predicted Affinity>  (225) 
-5.758337

>  <ref_pdb>  (225) 
x0434_0

>  <ref_mols>  (225) 
x0434_0

>  <creator>  (225) 
Will Poole

>  <energy minimised>  (225) 
True

$$$$
WPC0520_minimised.pdb
     RDKit          3D

 19 20  0  0  0  0  0  0  0  0999 V2000
   12.2730    3.0440   23.4180 C   0  0  0  0  0  0  0  0  0  0  0  0
   13.3570    2.0910   23.3780 O   0  0  0  0  0  0  0  0  0  0  0  0
   13.1330    0.7650   23.8970 C   0  0  0  0  0  0  0  0  0  0  0  0
   11.7800    0.2280   23.4820 C   0  0  0  0  0  0  0  0  0  0  0  0
   11.6420   -0.4270   22.2510 C   0  0  0  0  0  0  0  0  0  0  0  0
   10.3690   -0.7970   21.8060 C   0  0  0  0  0  0  0  0  0  0  0  0
    9.2320   -0.4780   22.5640 C   0  0  0  0  0  0  0  0  0  0  0  0
    7.9430   -0.6050   22.0080 N   0  0  0  0  0  0  0  0  0  0  0  0
    7.6000   -0.1910   20.7480 C   0  0  0  0  0  0  0  0  0  0  0  0
    8.3900    0.1060   19.8720 O   0  0  0  0  0  0  0  0  0  0  0  0
    6.2490   -0.0950   20.5770 N   0  0  0  0  0  0  0  0  0  0  0  0
    5.6290    0.5310   19.4730 C   0  0  0  0  0  0  0  0  0  0  0  0
    4.6730    1.5280   19.7010 C   0  0  0  0  0  0  0  0  0  0  0  0
    4.1850    2.2250   18.5890 C   0  0  0  0  0  0  0  0  0  0  0  0
    4.6720    1.9190   17.3100 C   0  0  0  0  0  0  0  0  0  0  0  0
    5.5620    0.9280   17.0780 N   0  0  0  0  0  0  0  0  0  0  0  0
    6.0370    0.2630   18.1490 C   0  0  0  0  0  0  0  0  0  0  0  0
    9.3770    0.1000   23.8320 C   0  0  0  0  0  0  0  0  0  0  0  0
   10.6540    0.4410   24.3000 C   0  0  0  0  0  0  0  0  0  0  0  0
  1  2  1  0
  2  3  1  0
  3  4  1  0
  4 19  2  0
  4  5  1  0
  5  6  2  0
  6  7  1  0
  7  8  1  0
  7 18  2  0
  8  9  1  0
  9 10  2  0
  9 11  1  0
 11 12  1  0
 12 13  2  0
 12 17  1  0
 13 14  1  0
 14 15  2  0
 15 16  1  0
 16 17  2  0
 18 19  1  0
M  END
>  <original SMILES>  (226) 
COCc1ccc(NC(=O)Nc2cccnc2)cc1

>  <AutoDock Predicted Affinity>  (226) 
-5.26861

>  <ref_pdb>  (226) 
x0434_0

>  <ref_mols>  (226) 
x0434_0

>  <creator>  (226) 
Will Poole

>  <energy minimised>  (226) 
True

$$$$
WPC0733_minimised.pdb
     RDKit          3D

 21 22  0  0  0  0  0  0  0  0999 V2000
   12.7680    4.6130   22.2850 C   0  0  0  0  0  0  0  0  0  0  0  0
   13.3010    3.5530   23.0940 O   0  0  0  0  0  0  0  0  0  0  0  0
   14.5440    3.0590   22.5470 N   0  0  0  0  0  0  0  0  0  0  0  0
   14.3470    1.7030   22.0070 C   0  0  0  0  0  0  0  0  0  0  0  0
   13.8910    0.6530   23.0420 C   0  0  0  0  0  0  0  0  0  0  0  0
   12.4180    0.3220   22.8950 C   0  0  0  0  0  0  0  0  0  0  0  0
   12.0130   -0.6780   21.9950 C   0  0  0  0  0  0  0  0  0  0  0  0
   10.6480   -0.9160   21.7870 C   0  0  0  0  0  0  0  0  0  0  0  0
    9.6870   -0.1480   22.4590 C   0  0  0  0  0  0  0  0  0  0  0  0
    8.3320   -0.2410   22.0900 N   0  0  0  0  0  0  0  0  0  0  0  0
    7.8810    0.0150   20.8240 C   0  0  0  0  0  0  0  0  0  0  0  0
    8.6090    0.2060   19.8690 O   0  0  0  0  0  0  0  0  0  0  0  0
    6.5180    0.0820   20.7340 N   0  0  0  0  0  0  0  0  0  0  0  0
    5.8170    0.5930   19.6160 C   0  0  0  0  0  0  0  0  0  0  0  0
    4.8380    1.5710   19.8250 C   0  0  0  0  0  0  0  0  0  0  0  0
    4.2720    2.1760   18.6960 C   0  0  0  0  0  0  0  0  0  0  0  0
    4.7080    1.8020   17.4170 C   0  0  0  0  0  0  0  0  0  0  0  0
    5.6100    0.8170   17.2030 N   0  0  0  0  0  0  0  0  0  0  0  0
    6.1610    0.2420   18.2920 C   0  0  0  0  0  0  0  0  0  0  0  0
   10.0870    0.8120   23.3990 C   0  0  0  0  0  0  0  0  0  0  0  0
   11.4520    1.0440   23.6180 C   0  0  0  0  0  0  0  0  0  0  0  0
  1  2  1  0
  2  3  1  0
  3  4  1  0
  4  5  1  0
  5  6  1  0
  6 21  2  0
  6  7  1  0
  7  8  2  0
  8  9  1  0
  9 10  1  0
  9 20  2  0
 10 11  1  0
 11 12  2  0
 11 13  1  0
 13 14  1  0
 14 15  2  0
 14 19  1  0
 15 16  1  0
 16 17  2  0
 17 18  1  0
 18 19  2  0
 20 21  1  0
M  END
>  <original SMILES>  (227) 
CONCCc1ccc(NC(=O)Nc2cccnc2)cc1

>  <AutoDock Predicted Affinity>  (227) 
-5.726803

>  <ref_pdb>  (227) 
x0434_0

>  <ref_mols>  (227) 
x0434_0

>  <creator>  (227) 
Will Poole

>  <energy minimised>  (227) 
True

$$$$
WPC0998_minimised.pdb
     RDKit          3D

 20 21  0  0  0  0  0  0  0  0999 V2000
   12.1820    3.8600   22.3830 C   0  0  0  0  0  0  0  0  0  0  0  0
   12.9850    3.3180   23.4430 O   0  0  0  0  0  0  0  0  0  0  0  0
   13.8750    2.2940   22.9410 N   0  0  0  0  0  0  0  0  0  0  0  0
   13.5470    0.9870   23.5380 C   0  0  0  0  0  0  0  0  0  0  0  0
   12.1470    0.5100   23.2130 C   0  0  0  0  0  0  0  0  0  0  0  0
   11.9330   -0.3780   22.1460 C   0  0  0  0  0  0  0  0  0  0  0  0
   10.6270   -0.7520   21.8040 C   0  0  0  0  0  0  0  0  0  0  0  0
    9.5350   -0.2320   22.5150 C   0  0  0  0  0  0  0  0  0  0  0  0
    8.2210   -0.4350   22.0510 N   0  0  0  0  0  0  0  0  0  0  0  0
    7.8080   -0.1360   20.7820 C   0  0  0  0  0  0  0  0  0  0  0  0
    8.5570    0.1260   19.8600 O   0  0  0  0  0  0  0  0  0  0  0  0
    6.4480   -0.1010   20.6560 N   0  0  0  0  0  0  0  0  0  0  0  0
    5.7680    0.4700   19.5550 C   0  0  0  0  0  0  0  0  0  0  0  0
    4.8010    1.4530   19.7930 C   0  0  0  0  0  0  0  0  0  0  0  0
    4.2560    2.1110   18.6840 C   0  0  0  0  0  0  0  0  0  0  0  0
    4.7020    1.7840   17.3960 C   0  0  0  0  0  0  0  0  0  0  0  0
    5.6000    0.8020   17.1540 N   0  0  0  0  0  0  0  0  0  0  0  0
    6.1300    0.1740   18.2230 C   0  0  0  0  0  0  0  0  0  0  0  0
    9.7480    0.5990   23.6220 C   0  0  0  0  0  0  0  0  0  0  0  0
   11.0550    0.9650   23.9750 C   0  0  0  0  0  0  0  0  0  0  0  0
  1  2  1  0
  2  3  1  0
  3  4  1  0
  4  5  1  0
  5 20  2  0
  5  6  1  0
  6  7  2  0
  7  8  1  0
  8  9  1  0
  8 19  2  0
  9 10  1  0
 10 11  2  0
 10 12  1  0
 12 13  1  0
 13 14  2  0
 13 18  1  0
 14 15  1  0
 15 16  2  0
 16 17  1  0
 17 18  2  0
 19 20  1  0
M  END
>  <original SMILES>  (228) 
CONCc1ccc(NC(=O)Nc2cccnc2)cc1

>  <AutoDock Predicted Affinity>  (228) 
-5.199073

>  <ref_pdb>  (228) 
x0434_0

>  <ref_mols>  (228) 
x0434_0

>  <creator>  (228) 
Will Poole

>  <energy minimised>  (228) 
True

$$$$
WPC0561_minimised.pdb
     RDKit          3D

 24 25  0  0  0  0  0  0  0  0999 V2000
   12.1470    5.2920   23.2000 C   0  0  0  0  0  0  0  0  0  0  0  0
   13.7610    5.1310   22.4780 S   0  0  0  0  0  0  0  0  0  0  0  0
   14.0060    6.1800   21.5220 O   0  0  0  0  0  0  0  0  0  0  0  0
   14.7370    4.7080   23.4480 O   0  0  0  0  0  0  0  0  0  0  0  0
   13.7010    3.7760   21.6040 N   0  0  0  0  0  0  0  0  0  0  0  0
   13.2180    2.5760   22.2830 C   0  0  0  0  0  0  0  0  0  0  0  0
   14.1530    1.3750   22.0560 C   0  0  0  0  0  0  0  0  0  0  0  0
   13.8000    0.2010   22.9930 C   0  0  0  0  0  0  0  0  0  0  0  0
   12.3260   -0.1490   22.9130 C   0  0  0  0  0  0  0  0  0  0  0  0
   11.8740   -1.0250   21.9150 C   0  0  0  0  0  0  0  0  0  0  0  0
   10.5000   -1.2170   21.7320 C   0  0  0  0  0  0  0  0  0  0  0  0
    9.5760   -0.5080   22.5110 C   0  0  0  0  0  0  0  0  0  0  0  0
    8.2250   -0.4710   22.1170 N   0  0  0  0  0  0  0  0  0  0  0  0
    7.8230   -0.0910   20.8630 C   0  0  0  0  0  0  0  0  0  0  0  0
    8.5850    0.1300   19.9400 O   0  0  0  0  0  0  0  0  0  0  0  0
    6.4690    0.0460   20.7460 N   0  0  0  0  0  0  0  0  0  0  0  0
    5.8080    0.5950   19.6210 C   0  0  0  0  0  0  0  0  0  0  0  0
    4.8320    1.5780   19.8210 C   0  0  0  0  0  0  0  0  0  0  0  0
    4.2930    2.1970   18.6870 C   0  0  0  0  0  0  0  0  0  0  0  0
    4.7520    1.8340   17.4130 C   0  0  0  0  0  0  0  0  0  0  0  0
    5.6510    0.8450   17.2070 N   0  0  0  0  0  0  0  0  0  0  0  0
    6.1770    0.2560   18.3000 C   0  0  0  0  0  0  0  0  0  0  0  0
   10.0210    0.2950   23.5690 C   0  0  0  0  0  0  0  0  0  0  0  0
   11.3970    0.4610   23.7780 C   0  0  0  0  0  0  0  0  0  0  0  0
  1  2  1  0
  2  3  2  0
  2  4  2  0
  2  5  1  0
  5  6  1  0
  6  7  1  0
  7  8  1  0
  8  9  1  0
  9 24  2  0
  9 10  1  0
 10 11  2  0
 11 12  1  0
 12 13  1  0
 12 23  2  0
 13 14  1  0
 14 15  2  0
 14 16  1  0
 16 17  1  0
 17 18  2  0
 17 22  1  0
 18 19  1  0
 19 20  2  0
 20 21  1  0
 21 22  2  0
 23 24  1  0
M  END
>  <original SMILES>  (229) 
CS(=O)(=O)NCCCc1ccc(NC(=O)Nc2cccnc2)cc1

>  <AutoDock Predicted Affinity>  (229) 
-6.142298

>  <ref_pdb>  (229) 
x0434_0

>  <ref_mols>  (229) 
x0434_0

>  <creator>  (229) 
Will Poole

>  <energy minimised>  (229) 
True

$$$$
WPC0933_minimised.pdb
     RDKit          3D

 24 25  0  0  0  0  0  0  0  0999 V2000
   10.4890    5.7530   23.1250 C   0  0  0  0  0  0  0  0  0  0  0  0
   10.4530    4.0920   23.7080 S   0  0  0  0  0  0  0  0  0  0  0  0
   10.3190    4.1440   25.1340 O   0  0  0  0  0  0  0  0  0  0  0  0
    9.6420    3.2070   22.9160 O   0  0  0  0  0  0  0  0  0  0  0  0
   11.9950    3.5900   23.6130 N   0  0  0  0  0  0  0  0  0  0  0  0
   12.4650    3.0930   22.3190 C   0  0  0  0  0  0  0  0  0  0  0  0
   13.7690    2.2850   22.4960 C   0  0  0  0  0  0  0  0  0  0  0  0
   13.6140    0.9000   23.7100 S   0  0  0  0  0  0  0  0  0  0  0  0
   12.0240    0.2210   23.3520 C   0  0  0  0  0  0  0  0  0  0  0  0
   11.8400   -0.4770   22.1540 C   0  0  0  0  0  0  0  0  0  0  0  0
   10.5470   -0.8420   21.7650 C   0  0  0  0  0  0  0  0  0  0  0  0
    9.4430   -0.4760   22.5500 C   0  0  0  0  0  0  0  0  0  0  0  0
    8.1370   -0.5750   22.0300 N   0  0  0  0  0  0  0  0  0  0  0  0
    7.7780   -0.1550   20.7760 C   0  0  0  0  0  0  0  0  0  0  0  0
    8.5580    0.1280   19.8860 O   0  0  0  0  0  0  0  0  0  0  0  0
    6.4250   -0.0460   20.6230 N   0  0  0  0  0  0  0  0  0  0  0  0
    5.7890    0.5620   19.5160 C   0  0  0  0  0  0  0  0  0  0  0  0
    4.8230    1.5500   19.7430 C   0  0  0  0  0  0  0  0  0  0  0  0
    4.3150    2.2290   18.6290 C   0  0  0  0  0  0  0  0  0  0  0  0
    4.7990    1.9220   17.3490 C   0  0  0  0  0  0  0  0  0  0  0  0
    5.6950    0.9370   17.1170 N   0  0  0  0  0  0  0  0  0  0  0  0
    6.1860    0.2860   18.1900 C   0  0  0  0  0  0  0  0  0  0  0  0
    9.6410    0.1280   23.8000 C   0  0  0  0  0  0  0  0  0  0  0  0
   10.9390    0.4660   24.2110 C   0  0  0  0  0  0  0  0  0  0  0  0
  1  2  1  0
  2  3  2  0
  2  4  2  0
  2  5  1  0
  5  6  1  0
  6  7  1  0
  7  8  1  0
  8  9  1  0
  9 24  2  0
  9 10  1  0
 10 11  2  0
 11 12  1  0
 12 13  1  0
 12 23  2  0
 13 14  1  0
 14 15  2  0
 14 16  1  0
 16 17  1  0
 17 18  2  0
 17 22  1  0
 18 19  1  0
 19 20  2  0
 20 21  1  0
 21 22  2  0
 23 24  1  0
M  END
>  <original SMILES>  (230) 
CS(=O)(=O)NCCSc1ccc(NC(=O)Nc2cccnc2)cc1

>  <AutoDock Predicted Affinity>  (230) 
-4.849745

>  <ref_pdb>  (230) 
x0434_0

>  <ref_mols>  (230) 
x0434_0

>  <creator>  (230) 
Will Poole

>  <energy minimised>  (230) 
True

$$$$
WPC0487_minimised.pdb
     RDKit          3D

 22 23  0  0  0  0  0  0  0  0999 V2000
   11.0880    2.9800   21.9380 C   0  0  0  0  0  0  0  0  0  0  0  0
   12.5010    3.4910   22.8640 S   0  0  0  0  0  0  0  0  0  0  0  0
   12.1320    3.3890   24.2600 O   0  0  0  0  0  0  0  0  0  0  0  0
   12.9670    4.7330   22.2820 O   0  0  0  0  0  0  0  0  0  0  0  0
   13.9180    1.9880   22.4230 S   0  0  0  0  0  0  0  0  0  0  0  0
   13.4930    0.7640   23.7230 C   0  0  0  0  0  0  0  0  0  0  0  0
   12.1270    0.1700   23.4650 C   0  0  0  0  0  0  0  0  0  0  0  0
   11.9130   -0.5600   22.2850 C   0  0  0  0  0  0  0  0  0  0  0  0
   10.6090   -0.9090   21.9170 C   0  0  0  0  0  0  0  0  0  0  0  0
    9.5220   -0.5130   22.7090 C   0  0  0  0  0  0  0  0  0  0  0  0
    8.2150   -0.5870   22.1900 N   0  0  0  0  0  0  0  0  0  0  0  0
    7.8520   -0.0950   20.9630 C   0  0  0  0  0  0  0  0  0  0  0  0
    8.6330    0.3320   20.1320 O   0  0  0  0  0  0  0  0  0  0  0  0
    6.5010   -0.0990   20.7670 N   0  0  0  0  0  0  0  0  0  0  0  0
    5.8490    0.4690   19.6480 C   0  0  0  0  0  0  0  0  0  0  0  0
    4.8500    1.4280   19.8530 C   0  0  0  0  0  0  0  0  0  0  0  0
    4.3090    2.0520   18.7220 C   0  0  0  0  0  0  0  0  0  0  0  0
    4.7830    1.7100   17.4480 C   0  0  0  0  0  0  0  0  0  0  0  0
    5.7150    0.7540   17.2380 N   0  0  0  0  0  0  0  0  0  0  0  0
    6.2490    0.1660   18.3280 C   0  0  0  0  0  0  0  0  0  0  0  0
    9.7420    0.1120   23.9430 C   0  0  0  0  0  0  0  0  0  0  0  0
   11.0480    0.4470   24.3280 C   0  0  0  0  0  0  0  0  0  0  0  0
  1  2  1  0
  2  3  2  0
  2  4  2  0
  2  5  1  0
  5  6  1  0
  6  7  1  0
  7 22  2  0
  7  8  1  0
  8  9  2  0
  9 10  1  0
 10 11  1  0
 10 21  2  0
 11 12  1  0
 12 13  2  0
 12 14  1  0
 14 15  1  0
 15 16  2  0
 15 20  1  0
 16 17  1  0
 17 18  2  0
 18 19  1  0
 19 20  2  0
 21 22  1  0
M  END
>  <original SMILES>  (231) 
CS(=O)(=O)SCc1ccc(NC(=O)Nc2cccnc2)cc1

>  <AutoDock Predicted Affinity>  (231) 
-5.44539

>  <ref_pdb>  (231) 
x0434_0

>  <ref_mols>  (231) 
x0434_0

>  <creator>  (231) 
Will Poole

>  <energy minimised>  (231) 
True

$$$$
WPC0938_minimised.pdb
     RDKit          3D

 23 24  0  0  0  0  0  0  0  0999 V2000
   12.4560    6.9200   25.2110 C   0  0  0  0  0  0  0  0  0  0  0  0
   11.3380    5.5190   24.7700 S   0  0  0  0  0  0  0  0  0  0  0  0
   12.3730    4.6390   23.5910 C   0  0  0  0  0  0  0  0  0  0  0  0
   13.6020    5.3280   22.6950 S   0  0  0  0  0  0  0  0  0  0  0  0
   12.2340    3.2870   23.7840 N   0  0  0  0  0  0  0  0  0  0  0  0
   13.1540    2.3260   23.1670 C   0  0  0  0  0  0  0  0  0  0  0  0
   13.0680    0.8980   23.7400 C   0  0  0  0  0  0  0  0  0  0  0  0
   11.7330    0.2640   23.4200 C   0  0  0  0  0  0  0  0  0  0  0  0
   11.6070   -0.5220   22.2650 C   0  0  0  0  0  0  0  0  0  0  0  0
   10.3390   -0.9430   21.8490 C   0  0  0  0  0  0  0  0  0  0  0  0
    9.1990   -0.5560   22.5680 C   0  0  0  0  0  0  0  0  0  0  0  0
    7.9170   -0.7140   22.0060 N   0  0  0  0  0  0  0  0  0  0  0  0
    7.5920   -0.3260   20.7330 C   0  0  0  0  0  0  0  0  0  0  0  0
    8.3940   -0.0700   19.8550 O   0  0  0  0  0  0  0  0  0  0  0  0
    6.2430   -0.1940   20.5600 N   0  0  0  0  0  0  0  0  0  0  0  0
    5.6350    0.4530   19.4610 C   0  0  0  0  0  0  0  0  0  0  0  0
    4.6830    1.4500   19.7030 C   0  0  0  0  0  0  0  0  0  0  0  0
    4.1910    2.1600   18.6020 C   0  0  0  0  0  0  0  0  0  0  0  0
    4.6740    1.8690   17.3180 C   0  0  0  0  0  0  0  0  0  0  0  0
    5.5610    0.8790   17.0710 N   0  0  0  0  0  0  0  0  0  0  0  0
    6.0410    0.2010   18.1330 C   0  0  0  0  0  0  0  0  0  0  0  0
    9.3330    0.1360   23.7800 C   0  0  0  0  0  0  0  0  0  0  0  0
   10.6050    0.5360   24.2150 C   0  0  0  0  0  0  0  0  0  0  0  0
  1  2  1  0
  2  3  1  0
  3  4  2  0
  3  5  1  0
  5  6  1  0
  6  7  1  0
  7  8  1  0
  8 23  2  0
  8  9  1  0
  9 10  2  0
 10 11  1  0
 11 12  1  0
 11 22  2  0
 12 13  1  0
 13 14  2  0
 13 15  1  0
 15 16  1  0
 16 17  2  0
 16 21  1  0
 17 18  1  0
 18 19  2  0
 19 20  1  0
 20 21  2  0
 22 23  1  0
M  END
>  <original SMILES>  (232) 
CSC(=S)NCCc1ccc(NC(=O)Nc2cccnc2)cc1

>  <AutoDock Predicted Affinity>  (232) 
-5.61913

>  <ref_pdb>  (232) 
x0434_0

>  <ref_mols>  (232) 
x0434_0

>  <creator>  (232) 
Will Poole

>  <energy minimised>  (232) 
True

$$$$
WPC0964_minimised.pdb
     RDKit          3D

 19 20  0  0  0  0  0  0  0  0999 V2000
   12.1120    3.6240   22.9650 C   0  0  0  0  0  0  0  0  0  0  0  0
   13.7320    2.7690   22.7500 S   0  0  0  0  0  0  0  0  0  0  0  0
   13.4540    1.1000   23.4980 C   0  0  0  0  0  0  0  0  0  0  0  0
   12.0910    0.5280   23.1800 C   0  0  0  0  0  0  0  0  0  0  0  0
   11.9130   -0.2730   22.0430 C   0  0  0  0  0  0  0  0  0  0  0  0
   10.6290   -0.7230   21.7090 C   0  0  0  0  0  0  0  0  0  0  0  0
    9.5210   -0.3500   22.4850 C   0  0  0  0  0  0  0  0  0  0  0  0
    8.2090   -0.5780   22.0200 N   0  0  0  0  0  0  0  0  0  0  0  0
    7.7790   -0.2310   20.7670 C   0  0  0  0  0  0  0  0  0  0  0  0
    8.5150    0.0750   19.8490 O   0  0  0  0  0  0  0  0  0  0  0  0
    6.4160   -0.2000   20.6520 N   0  0  0  0  0  0  0  0  0  0  0  0
    5.7380    0.4000   19.5640 C   0  0  0  0  0  0  0  0  0  0  0  0
    4.7880    1.3960   19.8210 C   0  0  0  0  0  0  0  0  0  0  0  0
    4.2580    2.0870   18.7240 C   0  0  0  0  0  0  0  0  0  0  0  0
    4.7000    1.7770   17.4290 C   0  0  0  0  0  0  0  0  0  0  0  0
    5.5790    0.7830   17.1700 N   0  0  0  0  0  0  0  0  0  0  0  0
    6.0950    0.1250   18.2260 C   0  0  0  0  0  0  0  0  0  0  0  0
    9.7100    0.3810   23.6660 C   0  0  0  0  0  0  0  0  0  0  0  0
   10.9970    0.8080   24.0200 C   0  0  0  0  0  0  0  0  0  0  0  0
  1  2  1  0
  2  3  1  0
  3  4  1  0
  4 19  2  0
  4  5  1  0
  5  6  2  0
  6  7  1  0
  7  8  1  0
  7 18  2  0
  8  9  1  0
  9 10  2  0
  9 11  1  0
 11 12  1  0
 12 13  2  0
 12 17  1  0
 13 14  1  0
 14 15  2  0
 15 16  1  0
 16 17  2  0
 18 19  1  0
M  END
>  <original SMILES>  (233) 
CSCc1ccc(NC(=O)Nc2cccnc2)cc1

>  <AutoDock Predicted Affinity>  (233) 
-5.37327

>  <ref_pdb>  (233) 
x0434_0

>  <ref_mols>  (233) 
x0434_0

>  <creator>  (233) 
Will Poole

>  <energy minimised>  (233) 
True

$$$$
WPC0630_minimised.pdb
     RDKit          3D

 18 19  0  0  0  0  0  0  0  0999 V2000
   13.8890    3.1660   22.6320 C   0  0  0  0  0  0  0  0  0  0  0  0
   14.1040    1.3610   22.9500 S   0  0  0  0  0  0  0  0  0  0  0  0
   12.4420    0.7520   22.8410 C   0  0  0  0  0  0  0  0  0  0  0  0
   12.1550   -0.2970   21.9570 C   0  0  0  0  0  0  0  0  0  0  0  0
   10.8260   -0.7050   21.7720 C   0  0  0  0  0  0  0  0  0  0  0  0
    9.7880   -0.0590   22.4620 C   0  0  0  0  0  0  0  0  0  0  0  0
    8.4450   -0.3000   22.1060 N   0  0  0  0  0  0  0  0  0  0  0  0
    7.9570   -0.0730   20.8470 C   0  0  0  0  0  0  0  0  0  0  0  0
    8.6610    0.1550   19.8830 O   0  0  0  0  0  0  0  0  0  0  0  0
    6.5910   -0.0650   20.7700 N   0  0  0  0  0  0  0  0  0  0  0  0
    5.8730    0.4610   19.6690 C   0  0  0  0  0  0  0  0  0  0  0  0
    4.9110    1.4520   19.8990 C   0  0  0  0  0  0  0  0  0  0  0  0
    4.3450    2.0820   18.7840 C   0  0  0  0  0  0  0  0  0  0  0  0
    4.7640    1.7200   17.4960 C   0  0  0  0  0  0  0  0  0  0  0  0
    5.6480    0.7250   17.2610 N   0  0  0  0  0  0  0  0  0  0  0  0
    6.2000    0.1250   18.3360 C   0  0  0  0  0  0  0  0  0  0  0  0
   10.0830    0.9430   23.3980 C   0  0  0  0  0  0  0  0  0  0  0  0
   11.4130    1.3490   23.5880 C   0  0  0  0  0  0  0  0  0  0  0  0
  1  2  1  0
  2  3  1  0
  3 18  2  0
  3  4  1  0
  4  5  2  0
  5  6  1  0
  6  7  1  0
  6 17  2  0
  7  8  1  0
  8  9  2  0
  8 10  1  0
 10 11  1  0
 11 12  2  0
 11 16  1  0
 12 13  1  0
 13 14  2  0
 14 15  1  0
 15 16  2  0
 17 18  1  0
M  END
>  <original SMILES>  (234) 
CSc1ccc(NC(=O)Nc2cccnc2)cc1

>  <AutoDock Predicted Affinity>  (234) 
-5.3309

>  <ref_pdb>  (234) 
x0434_0

>  <ref_mols>  (234) 
x0434_0

>  <creator>  (234) 
Will Poole

>  <energy minimised>  (234) 
True

$$$$
WPC0894_minimised.pdb
     RDKit          3D

 24 26  0  0  0  0  0  0  0  0999 V2000
   12.6860    6.8330   24.9640 C   0  0  0  0  0  0  0  0  0  0  0  0
   12.3910    5.4940   24.3620 C   0  0  0  0  0  0  0  0  0  0  0  0
   13.3680    4.7840   23.6250 C   0  0  0  0  0  0  0  0  0  0  0  0
   12.7750    3.5950   23.3700 C   0  0  0  0  0  0  0  0  0  0  0  0
   13.4750    2.4200   22.7370 C   0  0  0  0  0  0  0  0  0  0  0  0
   13.3520    1.0840   23.5090 C   0  0  0  0  0  0  0  0  0  0  0  0
   12.0210    0.4100   23.2540 C   0  0  0  0  0  0  0  0  0  0  0  0
   11.8580   -0.3790   22.1050 C   0  0  0  0  0  0  0  0  0  0  0  0
   10.5850   -0.8500   21.7630 C   0  0  0  0  0  0  0  0  0  0  0  0
    9.4700   -0.5060   22.5410 C   0  0  0  0  0  0  0  0  0  0  0  0
    8.1640   -0.7050   22.0480 N   0  0  0  0  0  0  0  0  0  0  0  0
    7.7640   -0.3380   20.7890 C   0  0  0  0  0  0  0  0  0  0  0  0
    8.5180   -0.0670   19.8740 O   0  0  0  0  0  0  0  0  0  0  0  0
    6.4060   -0.2410   20.6640 N   0  0  0  0  0  0  0  0  0  0  0  0
    5.7570    0.3870   19.5740 C   0  0  0  0  0  0  0  0  0  0  0  0
    4.8220    1.3980   19.8280 C   0  0  0  0  0  0  0  0  0  0  0  0
    4.3110    2.1030   18.7310 C   0  0  0  0  0  0  0  0  0  0  0  0
    4.7560    1.7930   17.4380 C   0  0  0  0  0  0  0  0  0  0  0  0
    5.6230    0.7880   17.1800 N   0  0  0  0  0  0  0  0  0  0  0  0
    6.1210    0.1150   18.2370 C   0  0  0  0  0  0  0  0  0  0  0  0
    9.6490    0.1890   23.7450 C   0  0  0  0  0  0  0  0  0  0  0  0
   10.9280    0.6320   24.1110 C   0  0  0  0  0  0  0  0  0  0  0  0
   11.5110    3.5410   23.8650 O   0  0  0  0  0  0  0  0  0  0  0  0
   11.2860    4.7810   24.5210 N   0  0  0  0  0  0  0  0  0  0  0  0
  1  2  1  0
  2  3  1  0
  2 24  2  0
  3  4  2  0
  4 23  1  0
  4  5  1  0
  5  6  1  0
  6  7  1  0
  7 22  1  0
  7  8  2  0
  8  9  1  0
  9 10  2  0
 10 11  1  0
 10 21  1  0
 11 12  1  0
 12 13  2  0
 12 14  1  0
 14 15  1  0
 15 16  2  0
 15 20  1  0
 16 17  1  0
 17 18  2  0
 18 19  1  0
 19 20  2  0
 21 22  2  0
 23 24  1  0
M  END
>  <original SMILES>  (235) 
Cc1cc(CCc2ccc(NC(=O)Nc3cccnc3)cc2)on1

>  <AutoDock Predicted Affinity>  (235) 
-6.62908

>  <ref_pdb>  (235) 
x0434_0

>  <ref_mols>  (235) 
x0434_0

>  <creator>  (235) 
Will Poole

>  <energy minimised>  (235) 
True

$$$$
WPC0885_minimised.pdb
     RDKit          3D

 24 26  0  0  0  0  0  0  0  0999 V2000
   10.4510    5.5050   23.2670 C   0  0  0  0  0  0  0  0  0  0  0  0
   11.7620    4.7920   23.0900 C   0  0  0  0  0  0  0  0  0  0  0  0
   11.9020    3.4930   22.7430 C   0  0  0  0  0  0  0  0  0  0  0  0
   13.2850    3.2590   22.8800 C   0  0  0  0  0  0  0  0  0  0  0  0
   13.9290    2.0650   22.7380 N   0  0  0  0  0  0  0  0  0  0  0  0
   13.5520    0.8290   23.4540 C   0  0  0  0  0  0  0  0  0  0  0  0
   12.1350    0.3500   23.2060 C   0  0  0  0  0  0  0  0  0  0  0  0
   11.8680   -0.5490   22.1610 C   0  0  0  0  0  0  0  0  0  0  0  0
   10.5450   -0.8980   21.8640 C   0  0  0  0  0  0  0  0  0  0  0  0
    9.4880   -0.3510   22.6030 C   0  0  0  0  0  0  0  0  0  0  0  0
    8.1630   -0.4850   22.1440 N   0  0  0  0  0  0  0  0  0  0  0  0
    7.7650   -0.1460   20.8780 C   0  0  0  0  0  0  0  0  0  0  0  0
    8.5240    0.1150   19.9630 O   0  0  0  0  0  0  0  0  0  0  0  0
    6.4070   -0.0770   20.7420 N   0  0  0  0  0  0  0  0  0  0  0  0
    5.7430    0.4890   19.6280 C   0  0  0  0  0  0  0  0  0  0  0  0
    4.7870    1.4890   19.8460 C   0  0  0  0  0  0  0  0  0  0  0  0
    4.2500    2.1300   18.7230 C   0  0  0  0  0  0  0  0  0  0  0  0
    4.6840    1.7620   17.4410 C   0  0  0  0  0  0  0  0  0  0  0  0
    5.5700    0.7640   17.2200 N   0  0  0  0  0  0  0  0  0  0  0  0
    6.1010    0.1600   18.3020 C   0  0  0  0  0  0  0  0  0  0  0  0
    9.7560    0.4450   23.7240 C   0  0  0  0  0  0  0  0  0  0  0  0
   11.0810    0.7820   24.0350 C   0  0  0  0  0  0  0  0  0  0  0  0
   13.9300    4.3610   23.2270 N   0  0  0  0  0  0  0  0  0  0  0  0
   12.9480    5.3770   23.3910 O   0  0  0  0  0  0  0  0  0  0  0  0
  1  2  1  0
  2  3  2  0
  2 24  1  0
  3  4  1  0
  4 23  2  0
  4  5  1  0
  5  6  1  0
  6  7  1  0
  7 22  1  0
  7  8  2  0
  8  9  1  0
  9 10  2  0
 10 11  1  0
 10 21  1  0
 11 12  1  0
 12 13  2  0
 12 14  1  0
 14 15  1  0
 15 16  2  0
 15 20  1  0
 16 17  1  0
 17 18  2  0
 18 19  1  0
 19 20  2  0
 21 22  2  0
 23 24  1  0
M  END
>  <original SMILES>  (236) 
Cc1cc(NCc2ccc(NC(=O)Nc3cccnc3)cc2)no1

>  <AutoDock Predicted Affinity>  (236) 
-6.858632

>  <ref_pdb>  (236) 
x0434_0

>  <ref_mols>  (236) 
x0434_0

>  <creator>  (236) 
Will Poole

>  <energy minimised>  (236) 
True

$$$$
WPC0445_minimised.pdb
     RDKit          3D

 17 18  0  0  0  0  0  0  0  0999 V2000
   14.1160    0.7430   22.8010 C   0  0  0  0  0  0  0  0  0  0  0  0
   12.6280    0.4790   22.7020 C   0  0  0  0  0  0  0  0  0  0  0  0
   12.1610   -0.6380   21.9890 C   0  0  0  0  0  0  0  0  0  0  0  0
   10.7830   -0.8530   21.8440 C   0  0  0  0  0  0  0  0  0  0  0  0
    9.8670    0.0500   22.4050 C   0  0  0  0  0  0  0  0  0  0  0  0
    8.4910   -0.0780   22.1280 N   0  0  0  0  0  0  0  0  0  0  0  0
    7.9610    0.0700   20.8750 C   0  0  0  0  0  0  0  0  0  0  0  0
    8.6370    0.1850   19.8730 O   0  0  0  0  0  0  0  0  0  0  0  0
    6.5950    0.1290   20.8410 N   0  0  0  0  0  0  0  0  0  0  0  0
    5.8510    0.5920   19.7260 C   0  0  0  0  0  0  0  0  0  0  0  0
    4.8840    1.5840   19.9270 C   0  0  0  0  0  0  0  0  0  0  0  0
    4.2900    2.1530   18.7940 C   0  0  0  0  0  0  0  0  0  0  0  0
    4.6880    1.7320   17.5170 C   0  0  0  0  0  0  0  0  0  0  0  0
    5.5740    0.7320   17.3130 N   0  0  0  0  0  0  0  0  0  0  0  0
    6.1500    0.1880   18.4050 C   0  0  0  0  0  0  0  0  0  0  0  0
   10.3290    1.1510   23.1400 C   0  0  0  0  0  0  0  0  0  0  0  0
   11.7080    1.3660   23.2880 C   0  0  0  0  0  0  0  0  0  0  0  0
  1  2  1  0
  2  3  2  0
  2 17  1  0
  3  4  1  0
  4  5  2  0
  5 16  1  0
  5  6  1  0
  6  7  1  0
  7  8  2  0
  7  9  1  0
  9 10  1  0
 10 11  2  0
 10 15  1  0
 11 12  1  0
 12 13  2  0
 13 14  1  0
 14 15  2  0
 16 17  2  0
M  END
>  <original SMILES>  (237) 
Cc1ccc(NC(=O)Nc2cccnc2)cc1

>  <AutoDock Predicted Affinity>  (237) 
-5.64019

>  <ref_pdb>  (237) 
x0434_0

>  <ref_mols>  (237) 
x0434_0

>  <creator>  (237) 
Will Poole

>  <energy minimised>  (237) 
True

$$$$
WPC0857_minimised.pdb
     RDKit          3D

 24 26  0  0  0  0  0  0  0  0999 V2000
   13.5410    5.0280   21.9010 C   0  0  0  0  0  0  0  0  0  0  0  0
   13.6740    3.6030   22.3540 C   0  0  0  0  0  0  0  0  0  0  0  0
   14.9120    2.9270   22.4320 C   0  0  0  0  0  0  0  0  0  0  0  0
   14.7110    1.6950   22.8640 N   0  0  0  0  0  0  0  0  0  0  0  0
   13.3690    1.5870   23.0790 N   0  0  0  0  0  0  0  0  0  0  0  0
   12.8980    0.3270   23.6560 C   0  0  0  0  0  0  0  0  0  0  0  0
   11.4650   -0.0430   23.3510 C   0  0  0  0  0  0  0  0  0  0  0  0
   11.1900   -0.8010   22.2040 C   0  0  0  0  0  0  0  0  0  0  0  0
    9.8650   -1.0050   21.8130 C   0  0  0  0  0  0  0  0  0  0  0  0
    8.8180   -0.4300   22.5490 C   0  0  0  0  0  0  0  0  0  0  0  0
    7.5240   -0.3890   22.0010 N   0  0  0  0  0  0  0  0  0  0  0  0
    7.2590    0.0350   20.7260 C   0  0  0  0  0  0  0  0  0  0  0  0
    8.1080    0.2650   19.8850 O   0  0  0  0  0  0  0  0  0  0  0  0
    5.9230    0.2060   20.4980 N   0  0  0  0  0  0  0  0  0  0  0  0
    5.3740    0.8060   19.3440 C   0  0  0  0  0  0  0  0  0  0  0  0
    4.3960    1.7960   19.4920 C   0  0  0  0  0  0  0  0  0  0  0  0
    3.9740    2.4670   18.3380 C   0  0  0  0  0  0  0  0  0  0  0  0
    4.5500    2.1480   17.1010 C   0  0  0  0  0  0  0  0  0  0  0  0
    5.4560    1.1560   16.9420 N   0  0  0  0  0  0  0  0  0  0  0  0
    5.8640    0.5130   18.0530 C   0  0  0  0  0  0  0  0  0  0  0  0
    9.0860    0.2430   23.7500 C   0  0  0  0  0  0  0  0  0  0  0  0
   10.4140    0.4230   24.1640 C   0  0  0  0  0  0  0  0  0  0  0  0
   12.6890    2.7450   22.7060 C   0  0  0  0  0  0  0  0  0  0  0  0
   11.3320    2.9210   22.6380 N   0  0  0  0  0  0  0  0  0  0  0  0
  1  2  1  0
  2 23  2  0
  2  3  1  0
  3  4  2  0
  4  5  1  0
  5  6  1  0
  5 23  1  0
  6  7  1  0
  7 22  1  0
  7  8  2  0
  8  9  1  0
  9 10  2  0
 10 11  1  0
 10 21  1  0
 11 12  1  0
 12 13  2  0
 12 14  1  0
 14 15  1  0
 15 16  2  0
 15 20  1  0
 16 17  1  0
 17 18  2  0
 18 19  1  0
 19 20  2  0
 21 22  2  0
 23 24  1  0
M  END
>  <original SMILES>  (238) 
Cc1cnn(Cc2ccc(NC(=O)Nc3cccnc3)cc2)c1N

>  <AutoDock Predicted Affinity>  (238) 
-6.8458

>  <ref_pdb>  (238) 
x0434_0

>  <ref_mols>  (238) 
x0434_0

>  <creator>  (238) 
Will Poole

>  <energy minimised>  (238) 
True

$$$$
WPC0745_minimised.pdb
     RDKit          3D

 24 26  0  0  0  0  0  0  0  0999 V2000
   12.7490    7.2020   25.6720 C   0  0  0  0  0  0  0  0  0  0  0  0
   12.3670    6.1020   24.7260 C   0  0  0  0  0  0  0  0  0  0  0  0
   13.2740    5.2900   24.2210 N   0  0  0  0  0  0  0  0  0  0  0  0
   12.6890    4.3840   23.3740 C   0  0  0  0  0  0  0  0  0  0  0  0
   13.5020    3.4160   22.5650 C   0  0  0  0  0  0  0  0  0  0  0  0
   13.7220    1.7350   23.3120 S   0  0  0  0  0  0  0  0  0  0  0  0
   12.1430    0.9620   23.1190 C   0  0  0  0  0  0  0  0  0  0  0  0
   11.9860   -0.0090   22.1210 C   0  0  0  0  0  0  0  0  0  0  0  0
   10.7100   -0.5190   21.8470 C   0  0  0  0  0  0  0  0  0  0  0  0
    9.5980   -0.0500   22.5660 C   0  0  0  0  0  0  0  0  0  0  0  0
    8.2930   -0.3480   22.1250 N   0  0  0  0  0  0  0  0  0  0  0  0
    7.8560   -0.0950   20.8510 C   0  0  0  0  0  0  0  0  0  0  0  0
    8.5900    0.1770   19.9200 O   0  0  0  0  0  0  0  0  0  0  0  0
    6.4940   -0.1030   20.7280 N   0  0  0  0  0  0  0  0  0  0  0  0
    5.8040    0.4500   19.6230 C   0  0  0  0  0  0  0  0  0  0  0  0
    4.8410    1.4410   19.8530 C   0  0  0  0  0  0  0  0  0  0  0  0
    4.3010    2.0950   18.7390 C   0  0  0  0  0  0  0  0  0  0  0  0
    4.7420    1.7530   17.4530 C   0  0  0  0  0  0  0  0  0  0  0  0
    5.6310    0.7620   17.2180 N   0  0  0  0  0  0  0  0  0  0  0  0
    6.1610    0.1410   18.2920 C   0  0  0  0  0  0  0  0  0  0  0  0
    9.7750    0.8460   23.6320 C   0  0  0  0  0  0  0  0  0  0  0  0
   11.0540    1.3490   23.9150 C   0  0  0  0  0  0  0  0  0  0  0  0
   11.3300    4.5040   23.2360 C   0  0  0  0  0  0  0  0  0  0  0  0
   10.7150    5.8030   24.2240 S   0  0  0  0  0  0  0  0  0  0  0  0
  1  2  1  0
  2  3  2  0
  2 24  1  0
  3  4  1  0
  4 23  2  0
  4  5  1  0
  5  6  1  0
  6  7  1  0
  7 22  1  0
  7  8  2  0
  8  9  1  0
  9 10  2  0
 10 11  1  0
 10 21  1  0
 11 12  1  0
 12 13  2  0
 12 14  1  0
 14 15  1  0
 15 16  2  0
 15 20  1  0
 16 17  1  0
 17 18  2  0
 18 19  1  0
 19 20  2  0
 21 22  2  0
 23 24  1  0
M  END
>  <original SMILES>  (239) 
Cc1nc(CSc2ccc(NC(=O)Nc3cccnc3)cc2)cs1

>  <AutoDock Predicted Affinity>  (239) 
-5.803187

>  <ref_pdb>  (239) 
x0434_0

>  <ref_mols>  (239) 
x0434_0

>  <creator>  (239) 
Will Poole

>  <energy minimised>  (239) 
True

$$$$
WPC0861_minimised.pdb
     RDKit          3D

 24 26  0  0  0  0  0  0  0  0999 V2000
   11.0450    5.5500   23.9660 C   0  0  0  0  0  0  0  0  0  0  0  0
   12.2490    4.8240   23.4430 C   0  0  0  0  0  0  0  0  0  0  0  0
   13.5000    5.3560   23.2700 N   0  0  0  0  0  0  0  0  0  0  0  0
   14.3530    4.4030   22.8220 N   0  0  0  0  0  0  0  0  0  0  0  0
   13.5680    3.3460   22.7450 C   0  0  0  0  0  0  0  0  0  0  0  0
   14.3250    1.8360   22.2700 S   0  0  0  0  0  0  0  0  0  0  0  0
   13.6280    0.5750   23.4080 C   0  0  0  0  0  0  0  0  0  0  0  0
   12.1810    0.2380   23.1270 C   0  0  0  0  0  0  0  0  0  0  0  0
   11.8600   -0.6430   22.0840 C   0  0  0  0  0  0  0  0  0  0  0  0
   10.5170   -0.9330   21.8130 C   0  0  0  0  0  0  0  0  0  0  0  0
    9.4970   -0.3270   22.5580 C   0  0  0  0  0  0  0  0  0  0  0  0
    8.1610   -0.4600   22.1410 N   0  0  0  0  0  0  0  0  0  0  0  0
    7.7200   -0.0860   20.9020 C   0  0  0  0  0  0  0  0  0  0  0  0
    8.4450    0.3230   20.0140 O   0  0  0  0  0  0  0  0  0  0  0  0
    6.3650   -0.1820   20.7580 N   0  0  0  0  0  0  0  0  0  0  0  0
    5.6570    0.3150   19.6420 C   0  0  0  0  0  0  0  0  0  0  0  0
    4.6180    1.2280   19.8510 C   0  0  0  0  0  0  0  0  0  0  0  0
    4.0420    1.8210   18.7230 C   0  0  0  0  0  0  0  0  0  0  0  0
    4.5240    1.4980   17.4470 C   0  0  0  0  0  0  0  0  0  0  0  0
    5.4930    0.5810   17.2310 N   0  0  0  0  0  0  0  0  0  0  0  0
    6.0580    0.0200   18.3200 C   0  0  0  0  0  0  0  0  0  0  0  0
    9.8130    0.5080   23.6360 C   0  0  0  0  0  0  0  0  0  0  0  0
   11.1560    0.7810   23.9250 C   0  0  0  0  0  0  0  0  0  0  0  0
   12.2720    3.5500   23.1400 N   0  0  0  0  0  0  0  0  0  0  0  0
  1  2  1  0
  2 24  2  0
  2  3  1  0
  3  4  1  0
  4  5  2  0
  5  6  1  0
  5 24  1  0
  6  7  1  0
  7  8  1  0
  8 23  1  0
  8  9  2  0
  9 10  1  0
 10 11  2  0
 11 12  1  0
 11 22  1  0
 12 13  1  0
 13 14  2  0
 13 15  1  0
 15 16  1  0
 16 17  2  0
 16 21  1  0
 17 18  1  0
 18 19  2  0
 19 20  1  0
 20 21  2  0
 22 23  2  0
M  END
>  <original SMILES>  (240) 
Cc1nc(SCc2ccc(NC(=O)Nc3cccnc3)cc2)n[nH]1

>  <AutoDock Predicted Affinity>  (240) 
-6.402792

>  <ref_pdb>  (240) 
x0434_0

>  <ref_mols>  (240) 
x0434_0

>  <creator>  (240) 
Will Poole

>  <energy minimised>  (240) 
True

$$$$
WPC0615_minimised.pdb
     RDKit          3D

 24 26  0  0  0  0  0  0  0  0999 V2000
   12.1780    6.5430   24.6030 C   0  0  0  0  0  0  0  0  0  0  0  0
   12.3820    5.2000   23.9820 C   0  0  0  0  0  0  0  0  0  0  0  0
   11.6900    4.1570   24.3880 N   0  0  0  0  0  0  0  0  0  0  0  0
   12.1490    3.0000   23.8230 N   0  0  0  0  0  0  0  0  0  0  0  0
   13.1320    3.2160   22.9720 C   0  0  0  0  0  0  0  0  0  0  0  0
   14.0790    1.8400   22.4140 S   0  0  0  0  0  0  0  0  0  0  0  0
   13.5800    0.4360   23.5020 C   0  0  0  0  0  0  0  0  0  0  0  0
   12.1740   -0.0500   23.2080 C   0  0  0  0  0  0  0  0  0  0  0  0
   11.9130   -0.7340   22.0120 C   0  0  0  0  0  0  0  0  0  0  0  0
   10.5940   -1.0550   21.6750 C   0  0  0  0  0  0  0  0  0  0  0  0
    9.5280   -0.6640   22.4980 C   0  0  0  0  0  0  0  0  0  0  0  0
    8.2000   -0.7350   22.0270 N   0  0  0  0  0  0  0  0  0  0  0  0
    7.7960   -0.3160   20.7850 C   0  0  0  0  0  0  0  0  0  0  0  0
    8.5490   -0.0390   19.8710 O   0  0  0  0  0  0  0  0  0  0  0  0
    6.4390   -0.1970   20.6700 N   0  0  0  0  0  0  0  0  0  0  0  0
    5.7810    0.4210   19.5790 C   0  0  0  0  0  0  0  0  0  0  0  0
    4.8340    1.4220   19.8310 C   0  0  0  0  0  0  0  0  0  0  0  0
    4.3090    2.1120   18.7300 C   0  0  0  0  0  0  0  0  0  0  0  0
    4.7530    1.7980   17.4380 C   0  0  0  0  0  0  0  0  0  0  0  0
    5.6280    0.7990   17.1820 N   0  0  0  0  0  0  0  0  0  0  0  0
    6.1400    0.1420   18.2420 C   0  0  0  0  0  0  0  0  0  0  0  0
    9.7940   -0.0750   23.7400 C   0  0  0  0  0  0  0  0  0  0  0  0
   11.1180    0.2130   24.1030 C   0  0  0  0  0  0  0  0  0  0  0  0
   13.6120    4.8780   22.7810 S   0  0  0  0  0  0  0  0  0  0  0  0
  1  2  1  0
  2 24  1  0
  2  3  2  0
  3  4  1  0
  4  5  2  0
  5  6  1  0
  5 24  1  0
  6  7  1  0
  7  8  1  0
  8 23  1  0
  8  9  2  0
  9 10  1  0
 10 11  2  0
 11 12  1  0
 11 22  1  0
 12 13  1  0
 13 14  2  0
 13 15  1  0
 15 16  1  0
 16 17  2  0
 16 21  1  0
 17 18  1  0
 18 19  2  0
 19 20  1  0
 20 21  2  0
 22 23  2  0
M  END
>  <original SMILES>  (241) 
Cc1nnc(SCc2ccc(NC(=O)Nc3cccnc3)cc2)s1

>  <AutoDock Predicted Affinity>  (241) 
-6.12494

>  <ref_pdb>  (241) 
x0434_0

>  <ref_mols>  (241) 
x0434_0

>  <creator>  (241) 
Will Poole

>  <energy minimised>  (241) 
True

$$$$
WPC0837_minimised.pdb
     RDKit          3D

 24 26  0  0  0  0  0  0  0  0999 V2000
   11.0090    2.8600   21.4440 C   0  0  0  0  0  0  0  0  0  0  0  0
   11.5940    3.6980   22.4930 N   0  0  0  0  0  0  0  0  0  0  0  0
   11.0610    4.8660   22.9970 C   0  0  0  0  0  0  0  0  0  0  0  0
   11.9930    5.3750   23.8700 C   0  0  0  0  0  0  0  0  0  0  0  0
   13.0960    4.5590   23.9340 N   0  0  0  0  0  0  0  0  0  0  0  0
   12.7860    3.5420   23.1620 C   0  0  0  0  0  0  0  0  0  0  0  0
   13.9780    2.3450   22.6670 S   0  0  0  0  0  0  0  0  0  0  0  0
   13.5740    0.8240   23.6330 C   0  0  0  0  0  0  0  0  0  0  0  0
   12.1640    0.3380   23.3820 C   0  0  0  0  0  0  0  0  0  0  0  0
   11.9090   -0.5790   22.3490 C   0  0  0  0  0  0  0  0  0  0  0  0
   10.5860   -0.8960   22.0150 C   0  0  0  0  0  0  0  0  0  0  0  0
    9.5240   -0.3050   22.7150 C   0  0  0  0  0  0  0  0  0  0  0  0
    8.2090   -0.4360   22.2350 N   0  0  0  0  0  0  0  0  0  0  0  0
    7.8160   -0.0250   20.9910 C   0  0  0  0  0  0  0  0  0  0  0  0
    8.5780    0.3790   20.1310 O   0  0  0  0  0  0  0  0  0  0  0  0
    6.4630   -0.0780   20.8150 N   0  0  0  0  0  0  0  0  0  0  0  0
    5.7830    0.4430   19.6910 C   0  0  0  0  0  0  0  0  0  0  0  0
    4.7730    1.3920   19.8900 C   0  0  0  0  0  0  0  0  0  0  0  0
    4.2060    1.9830   18.7540 C   0  0  0  0  0  0  0  0  0  0  0  0
    4.6600    1.6110   17.4810 C   0  0  0  0  0  0  0  0  0  0  0  0
    5.6030    0.6630   17.2780 N   0  0  0  0  0  0  0  0  0  0  0  0
    6.1660    0.1120   18.3730 C   0  0  0  0  0  0  0  0  0  0  0  0
    9.7780    0.5330   23.8080 C   0  0  0  0  0  0  0  0  0  0  0  0
   11.0990    0.8530   24.1450 C   0  0  0  0  0  0  0  0  0  0  0  0
  1  2  1  0
  2  3  1  0
  2  6  1  0
  3  4  2  0
  4  5  1  0
  5  6  2  0
  6  7  1  0
  7  8  1  0
  8  9  1  0
  9 24  1  0
  9 10  2  0
 10 11  1  0
 11 12  2  0
 12 13  1  0
 12 23  1  0
 13 14  1  0
 14 15  2  0
 14 16  1  0
 16 17  1  0
 17 18  2  0
 17 22  1  0
 18 19  1  0
 19 20  2  0
 20 21  1  0
 21 22  2  0
 23 24  2  0
M  END
>  <original SMILES>  (242) 
Cn1ccnc1SCc1ccc(NC(=O)Nc2cccnc2)cc1

>  <AutoDock Predicted Affinity>  (242) 
-6.20035

>  <ref_pdb>  (242) 
x0434_0

>  <ref_mols>  (242) 
x0434_0

>  <creator>  (242) 
Will Poole

>  <energy minimised>  (242) 
True

$$$$
WPC0855_minimised.pdb
     RDKit          3D

 24 26  0  0  0  0  0  0  0  0999 V2000
   11.1830    2.9960   21.5180 C   0  0  0  0  0  0  0  0  0  0  0  0
   11.9890    3.7680   22.4640 N   0  0  0  0  0  0  0  0  0  0  0  0
   11.6080    4.9940   22.9020 N   0  0  0  0  0  0  0  0  0  0  0  0
   12.5970    5.4370   23.6320 N   0  0  0  0  0  0  0  0  0  0  0  0
   13.6500    4.5600   23.6680 N   0  0  0  0  0  0  0  0  0  0  0  0
   13.2070    3.5070   23.0300 C   0  0  0  0  0  0  0  0  0  0  0  0
   14.2410    2.1690   22.5430 S   0  0  0  0  0  0  0  0  0  0  0  0
   13.7130    0.7390   23.5800 C   0  0  0  0  0  0  0  0  0  0  0  0
   12.2720    0.3510   23.3390 C   0  0  0  0  0  0  0  0  0  0  0  0
   11.9550   -0.5610   22.3180 C   0  0  0  0  0  0  0  0  0  0  0  0
   10.6130   -0.8180   22.0080 C   0  0  0  0  0  0  0  0  0  0  0  0
    9.5910   -0.1720   22.7180 C   0  0  0  0  0  0  0  0  0  0  0  0
    8.2600   -0.2700   22.2740 N   0  0  0  0  0  0  0  0  0  0  0  0
    7.8510    0.0870   21.0190 C   0  0  0  0  0  0  0  0  0  0  0  0
    8.6080    0.4360   20.1320 O   0  0  0  0  0  0  0  0  0  0  0  0
    6.4960    0.0410   20.8600 N   0  0  0  0  0  0  0  0  0  0  0  0
    5.8040    0.5150   19.7210 C   0  0  0  0  0  0  0  0  0  0  0  0
    4.7870    1.4600   19.8950 C   0  0  0  0  0  0  0  0  0  0  0  0
    4.2080    2.0070   18.7450 C   0  0  0  0  0  0  0  0  0  0  0  0
    4.6590    1.5990   17.4810 C   0  0  0  0  0  0  0  0  0  0  0  0
    5.6050    0.6490   17.3030 N   0  0  0  0  0  0  0  0  0  0  0  0
    6.1790    0.1400   18.4120 C   0  0  0  0  0  0  0  0  0  0  0  0
    9.9020    0.6700   23.7940 C   0  0  0  0  0  0  0  0  0  0  0  0
   11.2430    0.9300   24.1070 C   0  0  0  0  0  0  0  0  0  0  0  0
  1  2  1  0
  2  3  1  0
  2  6  1  0
  3  4  2  0
  4  5  1  0
  5  6  2  0
  6  7  1  0
  7  8  1  0
  8  9  1  0
  9 24  1  0
  9 10  2  0
 10 11  1  0
 11 12  2  0
 12 13  1  0
 12 23  1  0
 13 14  1  0
 14 15  2  0
 14 16  1  0
 16 17  1  0
 17 18  2  0
 17 22  1  0
 18 19  1  0
 19 20  2  0
 20 21  1  0
 21 22  2  0
 23 24  2  0
M  END
>  <original SMILES>  (243) 
Cn1nnnc1SCc1ccc(NC(=O)Nc2cccnc2)cc1

>  <AutoDock Predicted Affinity>  (243) 
-6.16744

>  <ref_pdb>  (243) 
x0434_0

>  <ref_mols>  (243) 
x0434_0

>  <creator>  (243) 
Will Poole

>  <energy minimised>  (243) 
True

$$$$
WPC0789_minimised.pdb
     RDKit          3D

 23 24  0  0  0  0  0  0  0  0999 V2000
   14.0660    6.2220   21.4790 N   0  0  0  0  0  0  0  0  0  0  0  0
   13.8260    5.3230   22.1600 C   0  0  0  0  0  0  0  0  0  0  0  0
   13.5780    4.2030   23.0680 C   0  0  0  0  0  0  0  0  0  0  0  0
   12.2340    4.3260   23.6440 C   0  0  0  0  0  0  0  0  0  0  0  0
   11.2090    4.4460   24.1620 N   0  0  0  0  0  0  0  0  0  0  0  0
   13.9110    2.5800   22.2410 S   0  0  0  0  0  0  0  0  0  0  0  0
   13.4800    1.2810   23.4750 C   0  0  0  0  0  0  0  0  0  0  0  0
   12.1130    0.7050   23.1940 C   0  0  0  0  0  0  0  0  0  0  0  0
   11.9420   -0.1680   22.1080 C   0  0  0  0  0  0  0  0  0  0  0  0
   10.6590   -0.6210   21.7770 C   0  0  0  0  0  0  0  0  0  0  0  0
    9.5440   -0.1830   22.5070 C   0  0  0  0  0  0  0  0  0  0  0  0
    8.2380   -0.4400   22.0440 N   0  0  0  0  0  0  0  0  0  0  0  0
    7.8180   -0.1700   20.7690 C   0  0  0  0  0  0  0  0  0  0  0  0
    8.5610    0.0680   19.8370 O   0  0  0  0  0  0  0  0  0  0  0  0
    6.4560   -0.1320   20.6490 N   0  0  0  0  0  0  0  0  0  0  0  0
    5.7770    0.4500   19.5530 C   0  0  0  0  0  0  0  0  0  0  0  0
    4.8210    1.4430   19.7990 C   0  0  0  0  0  0  0  0  0  0  0  0
    4.2860    2.1180   18.6950 C   0  0  0  0  0  0  0  0  0  0  0  0
    4.7320    1.8000   17.4050 C   0  0  0  0  0  0  0  0  0  0  0  0
    5.6170    0.8080   17.1550 N   0  0  0  0  0  0  0  0  0  0  0  0
    6.1370    0.1630   18.2180 C   0  0  0  0  0  0  0  0  0  0  0  0
    9.7220    0.6310   23.6340 C   0  0  0  0  0  0  0  0  0  0  0  0
   11.0080    1.0670   23.9850 C   0  0  0  0  0  0  0  0  0  0  0  0
  1  2  3  0
  2  3  1  0
  3  4  1  0
  3  6  1  0
  4  5  3  0
  6  7  1  0
  7  8  1  0
  8 23  2  0
  8  9  1  0
  9 10  2  0
 10 11  1  0
 11 12  1  0
 11 22  2  0
 12 13  1  0
 13 14  2  0
 13 15  1  0
 15 16  1  0
 16 17  2  0
 16 21  1  0
 17 18  1  0
 18 19  2  0
 19 20  1  0
 20 21  2  0
 22 23  1  0
M  END
>  <original SMILES>  (244) 
N#CC(C#N)SCc1ccc(NC(=O)Nc2cccnc2)cc1

>  <AutoDock Predicted Affinity>  (244) 
-6.16719

>  <ref_pdb>  (244) 
x0434_0

>  <ref_mols>  (244) 
x0434_0

>  <creator>  (244) 
Will Poole

>  <energy minimised>  (244) 
True

$$$$
WPC0715_minimised.pdb
     RDKit          3D

 21 22  0  0  0  0  0  0  0  0999 V2000
   13.8270    5.8860   21.7140 N   0  0  0  0  0  0  0  0  0  0  0  0
   13.5080    4.8190   22.0220 C   0  0  0  0  0  0  0  0  0  0  0  0
   13.2020    3.4820   22.4090 C   0  0  0  0  0  0  0  0  0  0  0  0
   14.1850    2.6180   22.7380 C   0  0  0  0  0  0  0  0  0  0  0  0
   13.9970    0.9530   23.2250 S   0  0  0  0  0  0  0  0  0  0  0  0
   12.2930    0.5160   23.0000 C   0  0  0  0  0  0  0  0  0  0  0  0
   11.9720   -0.4450   22.0310 C   0  0  0  0  0  0  0  0  0  0  0  0
   10.6300   -0.7600   21.7860 C   0  0  0  0  0  0  0  0  0  0  0  0
    9.6120   -0.1080   22.4980 C   0  0  0  0  0  0  0  0  0  0  0  0
    8.2690   -0.2660   22.1050 N   0  0  0  0  0  0  0  0  0  0  0  0
    7.8290   -0.0200   20.8330 C   0  0  0  0  0  0  0  0  0  0  0  0
    8.5680    0.1910   19.8910 O   0  0  0  0  0  0  0  0  0  0  0  0
    6.4670    0.0210   20.7240 N   0  0  0  0  0  0  0  0  0  0  0  0
    5.7770    0.5450   19.6050 C   0  0  0  0  0  0  0  0  0  0  0  0
    4.8010    1.5260   19.8150 C   0  0  0  0  0  0  0  0  0  0  0  0
    4.2520    2.1480   18.6870 C   0  0  0  0  0  0  0  0  0  0  0  0
    4.7040    1.7910   17.4090 C   0  0  0  0  0  0  0  0  0  0  0  0
    5.6030    0.8050   17.1940 N   0  0  0  0  0  0  0  0  0  0  0  0
    6.1360    0.2100   18.2810 C   0  0  0  0  0  0  0  0  0  0  0  0
    9.9360    0.8000   23.5160 C   0  0  0  0  0  0  0  0  0  0  0  0
   11.2800    1.1070   23.7740 C   0  0  0  0  0  0  0  0  0  0  0  0
  1  2  3  0
  2  3  1  0
  3  4  2  0
  4  5  1  0
  5  6  1  0
  6 21  2  0
  6  7  1  0
  7  8  2  0
  8  9  1  0
  9 10  1  0
  9 20  2  0
 10 11  1  0
 11 12  2  0
 11 13  1  0
 13 14  1  0
 14 15  2  0
 14 19  1  0
 15 16  1  0
 16 17  2  0
 17 18  1  0
 18 19  2  0
 20 21  1  0
M  END
>  <original SMILES>  (245) 
N#CC=CSc1ccc(NC(=O)Nc2cccnc2)cc1

>  <AutoDock Predicted Affinity>  (245) 
-5.52133

>  <ref_pdb>  (245) 
x0434_0

>  <ref_mols>  (245) 
x0434_0

>  <creator>  (245) 
Will Poole

>  <energy minimised>  (245) 
True

$$$$
WPC0510_minimised.pdb
     RDKit          3D

 24 25  0  0  0  0  0  0  0  0999 V2000
    9.9120    5.9940   23.6520 N   0  0  0  0  0  0  0  0  0  0  0  0
   10.7720    5.3770   23.1950 C   0  0  0  0  0  0  0  0  0  0  0  0
   11.8970    4.6290   22.6260 C   0  0  0  0  0  0  0  0  0  0  0  0
   13.1080    4.5600   23.5400 C   0  0  0  0  0  0  0  0  0  0  0  0
   13.2100    5.2170   24.5540 O   0  0  0  0  0  0  0  0  0  0  0  0
   14.1650    3.7480   23.2050 N   0  0  0  0  0  0  0  0  0  0  0  0
   14.1850    2.6260   22.2650 C   0  0  0  0  0  0  0  0  0  0  0  0
   13.9480    1.2560   22.9380 C   0  0  0  0  0  0  0  0  0  0  0  0
   12.5070    0.8020   22.8600 C   0  0  0  0  0  0  0  0  0  0  0  0
   12.1380   -0.1220   21.8710 C   0  0  0  0  0  0  0  0  0  0  0  0
   10.7930   -0.4730   21.7150 C   0  0  0  0  0  0  0  0  0  0  0  0
    9.8080    0.1150   22.5220 C   0  0  0  0  0  0  0  0  0  0  0  0
    8.4460   -0.0590   22.1980 N   0  0  0  0  0  0  0  0  0  0  0  0
    7.9350    0.1690   20.9470 C   0  0  0  0  0  0  0  0  0  0  0  0
    8.6220    0.4230   19.9770 O   0  0  0  0  0  0  0  0  0  0  0  0
    6.5690    0.1260   20.8710 N   0  0  0  0  0  0  0  0  0  0  0  0
    5.8360    0.5790   19.7470 C   0  0  0  0  0  0  0  0  0  0  0  0
    4.8600    1.5650   19.9290 C   0  0  0  0  0  0  0  0  0  0  0  0
    4.2860    2.1310   18.7840 C   0  0  0  0  0  0  0  0  0  0  0  0
    4.7110    1.7110   17.5160 C   0  0  0  0  0  0  0  0  0  0  0  0
    5.6070    0.7150   17.3280 N   0  0  0  0  0  0  0  0  0  0  0  0
    6.1680    0.1800   18.4320 C   0  0  0  0  0  0  0  0  0  0  0  0
   10.1830    0.9770   23.5640 C   0  0  0  0  0  0  0  0  0  0  0  0
   11.5360    1.3090   23.7430 C   0  0  0  0  0  0  0  0  0  0  0  0
  1  2  3  0
  2  3  1  0
  3  4  1  0
  4  5  2  0
  4  6  1  0
  6  7  1  0
  7  8  1  0
  8  9  1  0
  9 24  2  0
  9 10  1  0
 10 11  2  0
 11 12  1  0
 12 13  1  0
 12 23  2  0
 13 14  1  0
 14 15  2  0
 14 16  1  0
 16 17  1  0
 17 18  2  0
 17 22  1  0
 18 19  1  0
 19 20  2  0
 20 21  1  0
 21 22  2  0
 23 24  1  0
M  END
>  <original SMILES>  (246) 
N#CCC(=O)NCCc1ccc(NC(=O)Nc2cccnc2)cc1

>  <AutoDock Predicted Affinity>  (246) 
-6.47412

>  <ref_pdb>  (246) 
x0434_0

>  <ref_mols>  (246) 
x0434_0

>  <creator>  (246) 
Will Poole

>  <energy minimised>  (246) 
True

$$$$
WPC0511_minimised.pdb
     RDKit          3D

 21 22  0  0  1  0  0  0  0  0999 V2000
   13.2130    3.4040   22.8920 N   0  0  0  0  0  0  0  0  0  0  0  0
   13.6020    2.3250   22.7740 C   0  0  0  0  0  0  0  0  0  0  0  0
   14.1340    0.9640   22.6660 C   0  0  0  0  0  0  0  0  0  0  0  0
   13.5040   -0.0210   23.6730 C   0  0  2  0  0  0  0  0  0  0  0  0
   14.2170   -1.2500   23.6220 O   0  0  0  0  0  0  0  0  0  0  0  0
   12.0360   -0.2620   23.3610 C   0  0  0  0  0  0  0  0  0  0  0  0
   11.6660   -1.1070   22.3000 C   0  0  0  0  0  0  0  0  0  0  0  0
   10.3200   -1.2190   21.9270 C   0  0  0  0  0  0  0  0  0  0  0  0
    9.3390   -0.4780   22.6010 C   0  0  0  0  0  0  0  0  0  0  0  0
    8.0200   -0.4370   22.1110 N   0  0  0  0  0  0  0  0  0  0  0  0
    7.6920   -0.1030   20.8260 C   0  0  0  0  0  0  0  0  0  0  0  0
    8.4940    0.0360   19.9230 O   0  0  0  0  0  0  0  0  0  0  0  0
    6.3500    0.0940   20.6610 N   0  0  0  0  0  0  0  0  0  0  0  0
    5.7380    0.6610   19.5190 C   0  0  0  0  0  0  0  0  0  0  0  0
    4.7600    1.6450   19.6990 C   0  0  0  0  0  0  0  0  0  0  0  0
    4.2550    2.2760   18.5570 C   0  0  0  0  0  0  0  0  0  0  0  0
    4.7520    1.9260   17.2950 C   0  0  0  0  0  0  0  0  0  0  0  0
    5.6570    0.9390   17.1060 N   0  0  0  0  0  0  0  0  0  0  0  0
    6.1470    0.3340   18.2070 C   0  0  0  0  0  0  0  0  0  0  0  0
    9.6930    0.3220   23.6950 C   0  0  0  0  0  0  0  0  0  0  0  0
   11.0390    0.4300   24.0740 C   0  0  0  0  0  0  0  0  0  0  0  0
  1  2  3  0
  2  3  1  0
  3  4  1  0
  4  5  1  6
  4  6  1  0
  6 21  2  0
  6  7  1  0
  7  8  2  0
  8  9  1  0
  9 10  1  0
  9 20  2  0
 10 11  1  0
 11 12  2  0
 11 13  1  0
 13 14  1  0
 14 15  2  0
 14 19  1  0
 15 16  1  0
 16 17  2  0
 17 18  1  0
 18 19  2  0
 20 21  1  0
M  END
>  <original SMILES>  (247) 
N#CCC(O)c1ccc(NC(=O)Nc2cccnc2)cc1

>  <AutoDock Predicted Affinity>  (247) 
-6.63817

>  <ref_pdb>  (247) 
x0434_0

>  <ref_mols>  (247) 
x0434_0

>  <creator>  (247) 
Will Poole

>  <energy minimised>  (247) 
True

$$$$
WPC0677_minimised.pdb
     RDKit          3D

 19 20  0  0  0  0  0  0  0  0999 V2000
   13.3030    3.7500   23.0700 N   0  0  0  0  0  0  0  0  0  0  0  0
   13.2940    2.6060   23.2200 C   0  0  0  0  0  0  0  0  0  0  0  0
   13.2950    1.1600   23.4870 C   0  0  0  0  0  0  0  0  0  0  0  0
   11.9350    0.5570   23.2070 C   0  0  0  0  0  0  0  0  0  0  0  0
   11.7730   -0.3670   22.1610 C   0  0  0  0  0  0  0  0  0  0  0  0
   10.4900   -0.8160   21.8250 C   0  0  0  0  0  0  0  0  0  0  0  0
    9.3700   -0.3340   22.5180 C   0  0  0  0  0  0  0  0  0  0  0  0
    8.0730   -0.5720   22.0260 N   0  0  0  0  0  0  0  0  0  0  0  0
    7.6880   -0.2610   20.7490 C   0  0  0  0  0  0  0  0  0  0  0  0
    8.4570   -0.0180   19.8390 O   0  0  0  0  0  0  0  0  0  0  0  0
    6.3310   -0.1840   20.6080 N   0  0  0  0  0  0  0  0  0  0  0  0
    5.6830    0.4310   19.5120 C   0  0  0  0  0  0  0  0  0  0  0  0
    4.7320    1.4290   19.7580 C   0  0  0  0  0  0  0  0  0  0  0  0
    4.2190    2.1240   18.6570 C   0  0  0  0  0  0  0  0  0  0  0  0
    4.6790    1.8190   17.3680 C   0  0  0  0  0  0  0  0  0  0  0  0
    5.5640    0.8270   17.1180 N   0  0  0  0  0  0  0  0  0  0  0  0
    6.0630    0.1630   18.1790 C   0  0  0  0  0  0  0  0  0  0  0  0
    9.5370    0.5200   23.6160 C   0  0  0  0  0  0  0  0  0  0  0  0
   10.8200    0.9610   23.9660 C   0  0  0  0  0  0  0  0  0  0  0  0
  1  2  3  0
  2  3  1  0
  3  4  1  0
  4 19  2  0
  4  5  1  0
  5  6  2  0
  6  7  1  0
  7  8  1  0
  7 18  2  0
  8  9  1  0
  9 10  2  0
  9 11  1  0
 11 12  1  0
 12 13  2  0
 12 17  1  0
 13 14  1  0
 14 15  2  0
 15 16  1  0
 16 17  2  0
 18 19  1  0
M  END
>  <original SMILES>  (248) 
N#CCc1ccc(NC(=O)Nc2cccnc2)cc1

>  <AutoDock Predicted Affinity>  (248) 
-5.70838

>  <ref_pdb>  (248) 
x0434_0

>  <ref_mols>  (248) 
x0434_0

>  <creator>  (248) 
Will Poole

>  <energy minimised>  (248) 
True

$$$$
WPC0967_minimised.pdb
     RDKit          3D

 22 23  0  0  0  0  0  0  0  0999 V2000
   13.3180    5.4770   21.8020 N   0  0  0  0  0  0  0  0  0  0  0  0
   13.0320    4.4060   22.1080 C   0  0  0  0  0  0  0  0  0  0  0  0
   12.7830    3.1630   22.4950 N   0  0  0  0  0  0  0  0  0  0  0  0
   13.7970    2.3360   22.9210 C   0  0  0  0  0  0  0  0  0  0  0  0
   14.9450    2.7170   22.9940 O   0  0  0  0  0  0  0  0  0  0  0  0
   13.4560    0.9080   23.3500 C   0  0  0  0  0  0  0  0  0  0  0  0
   12.0250    0.4750   23.0930 C   0  0  0  0  0  0  0  0  0  0  0  0
   11.7560   -0.4500   22.0710 C   0  0  0  0  0  0  0  0  0  0  0  0
   10.4320   -0.7890   21.7730 C   0  0  0  0  0  0  0  0  0  0  0  0
    9.3770   -0.1990   22.4830 C   0  0  0  0  0  0  0  0  0  0  0  0
    8.0530   -0.3580   22.0330 N   0  0  0  0  0  0  0  0  0  0  0  0
    7.6590   -0.0700   20.7550 C   0  0  0  0  0  0  0  0  0  0  0  0
    8.4280    0.1600   19.8400 O   0  0  0  0  0  0  0  0  0  0  0  0
    6.3020   -0.0070   20.6140 N   0  0  0  0  0  0  0  0  0  0  0  0
    5.6440    0.5610   19.5000 C   0  0  0  0  0  0  0  0  0  0  0  0
    4.6740    1.5470   19.7190 C   0  0  0  0  0  0  0  0  0  0  0  0
    4.1530    2.2050   18.5990 C   0  0  0  0  0  0  0  0  0  0  0  0
    4.6250    1.8770   17.3210 C   0  0  0  0  0  0  0  0  0  0  0  0
    5.5210    0.8880   17.0960 N   0  0  0  0  0  0  0  0  0  0  0  0
    6.0280    0.2600   18.1750 C   0  0  0  0  0  0  0  0  0  0  0  0
    9.6450    0.6610   23.5570 C   0  0  0  0  0  0  0  0  0  0  0  0
   10.9710    0.9900   23.8700 C   0  0  0  0  0  0  0  0  0  0  0  0
  1  2  3  0
  2  3  1  0
  3  4  1  0
  4  5  2  0
  4  6  1  0
  6  7  1  0
  7 22  2  0
  7  8  1  0
  8  9  2  0
  9 10  1  0
 10 11  1  0
 10 21  2  0
 11 12  1  0
 12 13  2  0
 12 14  1  0
 14 15  1  0
 15 16  2  0
 15 20  1  0
 16 17  1  0
 17 18  2  0
 18 19  1  0
 19 20  2  0
 21 22  1  0
M  END
>  <original SMILES>  (249) 
N#CNC(=O)Cc1ccc(NC(=O)Nc2cccnc2)cc1

>  <AutoDock Predicted Affinity>  (249) 
-6.11602

>  <ref_pdb>  (249) 
x0434_0

>  <ref_mols>  (249) 
x0434_0

>  <creator>  (249) 
Will Poole

>  <energy minimised>  (249) 
True

$$$$
WPC0718_minimised.pdb
     RDKit          3D

 23 24  0  0  0  0  0  0  0  0999 V2000
   14.0580    6.2790   21.7710 N   0  0  0  0  0  0  0  0  0  0  0  0
   14.0880    5.1520   21.9960 C   0  0  0  0  0  0  0  0  0  0  0  0
   14.2040    3.8520   22.1930 N   0  0  0  0  0  0  0  0  0  0  0  0
   13.3990    3.1150   23.0040 C   0  0  0  0  0  0  0  0  0  0  0  0
   12.5640    3.5460   23.7780 O   0  0  0  0  0  0  0  0  0  0  0  0
   13.9040    1.8560   22.9790 O   0  0  0  0  0  0  0  0  0  0  0  0
   13.3790    0.8090   23.7970 C   0  0  0  0  0  0  0  0  0  0  0  0
   11.9840    0.4180   23.3620 C   0  0  0  0  0  0  0  0  0  0  0  0
   11.8010   -0.4570   22.2780 C   0  0  0  0  0  0  0  0  0  0  0  0
   10.5030   -0.7810   21.8590 C   0  0  0  0  0  0  0  0  0  0  0  0
    9.3930   -0.2270   22.5140 C   0  0  0  0  0  0  0  0  0  0  0  0
    8.0930   -0.4120   22.0080 N   0  0  0  0  0  0  0  0  0  0  0  0
    7.7270   -0.1310   20.7220 C   0  0  0  0  0  0  0  0  0  0  0  0
    8.5080    0.0750   19.8130 O   0  0  0  0  0  0  0  0  0  0  0  0
    6.3720   -0.0450   20.5740 N   0  0  0  0  0  0  0  0  0  0  0  0
    5.7230    0.5420   19.4650 C   0  0  0  0  0  0  0  0  0  0  0  0
    4.7490    1.5210   19.6960 C   0  0  0  0  0  0  0  0  0  0  0  0
    4.2250    2.1910   18.5850 C   0  0  0  0  0  0  0  0  0  0  0  0
    4.7000    1.8830   17.3030 C   0  0  0  0  0  0  0  0  0  0  0  0
    5.6030    0.9040   17.0660 N   0  0  0  0  0  0  0  0  0  0  0  0
    6.1110    0.2620   18.1370 C   0  0  0  0  0  0  0  0  0  0  0  0
    9.5750    0.6070   23.6240 C   0  0  0  0  0  0  0  0  0  0  0  0
   10.8700    0.9280   24.0510 C   0  0  0  0  0  0  0  0  0  0  0  0
  1  2  3  0
  2  3  1  0
  3  4  1  0
  4  5  2  0
  4  6  1  0
  6  7  1  0
  7  8  1  0
  8 23  2  0
  8  9  1  0
  9 10  2  0
 10 11  1  0
 11 12  1  0
 11 22  2  0
 12 13  1  0
 13 14  2  0
 13 15  1  0
 15 16  1  0
 16 17  2  0
 16 21  1  0
 17 18  1  0
 18 19  2  0
 19 20  1  0
 20 21  2  0
 22 23  1  0
M  END
>  <original SMILES>  (250) 
N#CNC(=O)OCc1ccc(NC(=O)Nc2cccnc2)cc1

>  <AutoDock Predicted Affinity>  (250) 
-5.88666

>  <ref_pdb>  (250) 
x0434_0

>  <ref_mols>  (250) 
x0434_0

>  <creator>  (250) 
Will Poole

>  <energy minimised>  (250) 
True

$$$$
WPC0620_minimised.pdb
     RDKit          3D

 20 21  0  0  0  0  0  0  0  0999 V2000
   10.7170    4.7080   24.7120 N   0  0  0  0  0  0  0  0  0  0  0  0
   11.5150    4.2120   24.0430 C   0  0  0  0  0  0  0  0  0  0  0  0
   12.7500    3.5370   23.1060 S   0  0  0  0  0  0  0  0  0  0  0  0
   12.8780    1.7640   23.6330 C   0  0  0  0  0  0  0  0  0  0  0  0
   11.6400    0.9630   23.3010 C   0  0  0  0  0  0  0  0  0  0  0  0
   11.6470    0.0880   22.2040 C   0  0  0  0  0  0  0  0  0  0  0  0
   10.4600   -0.5430   21.8130 C   0  0  0  0  0  0  0  0  0  0  0  0
    9.2650   -0.2800   22.5000 C   0  0  0  0  0  0  0  0  0  0  0  0
    8.0220   -0.6410   21.9470 N   0  0  0  0  0  0  0  0  0  0  0  0
    7.6590   -0.3250   20.6660 C   0  0  0  0  0  0  0  0  0  0  0  0
    8.4360   -0.0670   19.7660 O   0  0  0  0  0  0  0  0  0  0  0  0
    6.3050   -0.2380   20.5120 N   0  0  0  0  0  0  0  0  0  0  0  0
    5.6750    0.4190   19.4300 C   0  0  0  0  0  0  0  0  0  0  0  0
    4.7390    1.4260   19.6970 C   0  0  0  0  0  0  0  0  0  0  0  0
    4.2420    2.1570   18.6110 C   0  0  0  0  0  0  0  0  0  0  0  0
    4.7060    1.8780   17.3170 C   0  0  0  0  0  0  0  0  0  0  0  0
    5.5820    0.8830   17.0490 N   0  0  0  0  0  0  0  0  0  0  0  0
    6.0600    0.1810   18.0940 C   0  0  0  0  0  0  0  0  0  0  0  0
    9.2810    0.5060   23.6600 C   0  0  0  0  0  0  0  0  0  0  0  0
   10.4730    1.1160   24.0710 C   0  0  0  0  0  0  0  0  0  0  0  0
  1  2  3  0
  2  3  1  0
  3  4  1  0
  4  5  1  0
  5 20  2  0
  5  6  1  0
  6  7  2  0
  7  8  1  0
  8  9  1  0
  8 19  2  0
  9 10  1  0
 10 11  2  0
 10 12  1  0
 12 13  1  0
 13 14  2  0
 13 18  1  0
 14 15  1  0
 15 16  2  0
 16 17  1  0
 17 18  2  0
 19 20  1  0
M  END
>  <original SMILES>  (251) 
N#CSCc1ccc(NC(=O)Nc2cccnc2)cc1

>  <AutoDock Predicted Affinity>  (251) 
-5.703

>  <ref_pdb>  (251) 
x0434_0

>  <ref_mols>  (251) 
x0434_0

>  <creator>  (251) 
Will Poole

>  <energy minimised>  (251) 
True

$$$$
WPC0676_minimised.pdb
     RDKit          3D

 19 20  0  0  0  0  0  0  0  0999 V2000
   14.1610    4.2870   22.6420 N   0  0  0  0  0  0  0  0  0  0  0  0
   14.2840    3.1410   22.5710 C   0  0  0  0  0  0  0  0  0  0  0  0
   14.4600    1.4570   22.5920 S   0  0  0  0  0  0  0  0  0  0  0  0
   12.7570    0.9250   22.6130 C   0  0  0  0  0  0  0  0  0  0  0  0
   12.4020   -0.2130   21.8710 C   0  0  0  0  0  0  0  0  0  0  0  0
   11.0570   -0.6010   21.7820 C   0  0  0  0  0  0  0  0  0  0  0  0
   10.0630    0.1490   22.4300 C   0  0  0  0  0  0  0  0  0  0  0  0
    8.7000   -0.1010   22.1640 N   0  0  0  0  0  0  0  0  0  0  0  0
    8.1530    0.0340   20.9160 C   0  0  0  0  0  0  0  0  0  0  0  0
    8.8180    0.1920   19.9130 O   0  0  0  0  0  0  0  0  0  0  0  0
    6.7850    0.0370   20.8870 N   0  0  0  0  0  0  0  0  0  0  0  0
    6.0240    0.4910   19.7800 C   0  0  0  0  0  0  0  0  0  0  0  0
    5.0560    1.4800   19.9890 C   0  0  0  0  0  0  0  0  0  0  0  0
    4.4410    2.0400   18.8630 C   0  0  0  0  0  0  0  0  0  0  0  0
    4.8240    1.6190   17.5820 C   0  0  0  0  0  0  0  0  0  0  0  0
    5.7120    0.6220   17.3700 N   0  0  0  0  0  0  0  0  0  0  0  0
    6.3080    0.0870   18.4560 C   0  0  0  0  0  0  0  0  0  0  0  0
   10.4210    1.2460   23.2260 C   0  0  0  0  0  0  0  0  0  0  0  0
   11.7660    1.6340   23.3210 C   0  0  0  0  0  0  0  0  0  0  0  0
  1  2  3  0
  2  3  1  0
  3  4  1  0
  4 19  2  0
  4  5  1  0
  5  6  2  0
  6  7  1  0
  7  8  1  0
  7 18  2  0
  8  9  1  0
  9 10  2  0
  9 11  1  0
 11 12  1  0
 12 13  2  0
 12 17  1  0
 13 14  1  0
 14 15  2  0
 15 16  1  0
 16 17  2  0
 18 19  1  0
M  END
>  <original SMILES>  (252) 
N#CSc1ccc(NC(=O)Nc2cccnc2)cc1

>  <AutoDock Predicted Affinity>  (252) 
-5.83572

>  <ref_pdb>  (252) 
x0434_0

>  <ref_mols>  (252) 
x0434_0

>  <creator>  (252) 
Will Poole

>  <energy minimised>  (252) 
True

$$$$
WPC0489_minimised.pdb
     RDKit          3D

 22 23  0  0  0  0  0  0  0  0999 V2000
   12.3670    3.9850   23.9780 N   0  0  0  0  0  0  0  0  0  0  0  0
   13.1210    3.6220   23.0180 C   0  0  0  0  0  0  0  0  0  0  0  0
   13.4590    4.5300   21.8480 C   0  0  0  0  0  0  0  0  0  0  0  0
   13.5960    5.8300   22.2020 F   0  0  0  0  0  0  0  0  0  0  0  0
   13.7560    2.3990   23.0250 N   0  0  0  0  0  0  0  0  0  0  0  0
   13.3510    1.1670   23.7110 C   0  0  0  0  0  0  0  0  0  0  0  0
   11.9900    0.6710   23.2810 C   0  0  0  0  0  0  0  0  0  0  0  0
   11.8570   -0.2460   22.2250 C   0  0  0  0  0  0  0  0  0  0  0  0
   10.5800   -0.6640   21.8260 C   0  0  0  0  0  0  0  0  0  0  0  0
    9.4400   -0.1660   22.4760 C   0  0  0  0  0  0  0  0  0  0  0  0
    8.1500   -0.4330   21.9800 N   0  0  0  0  0  0  0  0  0  0  0  0
    7.7600   -0.1620   20.6990 C   0  0  0  0  0  0  0  0  0  0  0  0
    8.5220    0.0650   19.7800 O   0  0  0  0  0  0  0  0  0  0  0  0
    6.4020   -0.0990   20.5660 N   0  0  0  0  0  0  0  0  0  0  0  0
    5.7400    0.4970   19.4700 C   0  0  0  0  0  0  0  0  0  0  0  0
    4.7840    1.4900   19.7150 C   0  0  0  0  0  0  0  0  0  0  0  0
    4.2560    2.1700   18.6110 C   0  0  0  0  0  0  0  0  0  0  0  0
    4.7120    1.8590   17.3220 C   0  0  0  0  0  0  0  0  0  0  0  0
    5.6000    0.8700   17.0740 N   0  0  0  0  0  0  0  0  0  0  0  0
    6.1090    0.2160   18.1370 C   0  0  0  0  0  0  0  0  0  0  0  0
    9.5750    0.7050   23.5640 C   0  0  0  0  0  0  0  0  0  0  0  0
   10.8490    1.1200   23.9690 C   0  0  0  0  0  0  0  0  0  0  0  0
  1  2  2  0
  2  3  1  0
  2  5  1  0
  3  4  1  0
  5  6  1  0
  6  7  1  0
  7 22  2  0
  7  8  1  0
  8  9  2  0
  9 10  1  0
 10 11  1  0
 10 21  2  0
 11 12  1  0
 12 13  2  0
 12 14  1  0
 14 15  1  0
 15 16  2  0
 15 20  1  0
 16 17  1  0
 17 18  2  0
 18 19  1  0
 19 20  2  0
 21 22  1  0
M  END
>  <original SMILES>  (253) 
N=C(CF)NCc1ccc(NC(=O)Nc2cccnc2)cc1

>  <AutoDock Predicted Affinity>  (253) 
-5.89194

>  <ref_pdb>  (253) 
x0434_0

>  <ref_mols>  (253) 
x0434_0

>  <creator>  (253) 
Will Poole

>  <energy minimised>  (253) 
True

$$$$
WPC0728_minimised.pdb
     RDKit          3D

 22 23  0  0  0  0  0  0  0  0999 V2000
   11.5560    3.6660   24.6690 N   0  0  0  0  0  0  0  0  0  0  0  0
   12.2590    3.6410   23.6110 C   0  0  0  0  0  0  0  0  0  0  0  0
   12.2660    4.8230   22.6570 C   0  0  0  0  0  0  0  0  0  0  0  0
   10.9830    5.4760   22.5960 O   0  0  0  0  0  0  0  0  0  0  0  0
   13.1440    2.6180   23.3470 N   0  0  0  0  0  0  0  0  0  0  0  0
   13.0740    1.2440   23.8620 C   0  0  0  0  0  0  0  0  0  0  0  0
   11.7960    0.5600   23.4350 C   0  0  0  0  0  0  0  0  0  0  0  0
   11.7470   -0.1670   22.2360 C   0  0  0  0  0  0  0  0  0  0  0  0
   10.5220   -0.6810   21.7930 C   0  0  0  0  0  0  0  0  0  0  0  0
    9.3480   -0.4440   22.5240 C   0  0  0  0  0  0  0  0  0  0  0  0
    8.0820   -0.7050   21.9640 N   0  0  0  0  0  0  0  0  0  0  0  0
    7.7070   -0.3020   20.7120 C   0  0  0  0  0  0  0  0  0  0  0  0
    8.4720    0.0300   19.8250 O   0  0  0  0  0  0  0  0  0  0  0  0
    6.3520   -0.2370   20.5640 N   0  0  0  0  0  0  0  0  0  0  0  0
    5.7070    0.4140   19.4890 C   0  0  0  0  0  0  0  0  0  0  0  0
    4.7790    1.4270   19.7570 C   0  0  0  0  0  0  0  0  0  0  0  0
    4.2740    2.1490   18.6690 C   0  0  0  0  0  0  0  0  0  0  0  0
    4.7180    1.8510   17.3720 C   0  0  0  0  0  0  0  0  0  0  0  0
    5.5870    0.8510   17.1040 N   0  0  0  0  0  0  0  0  0  0  0  0
    6.0760    0.1600   18.1520 C   0  0  0  0  0  0  0  0  0  0  0  0
    9.4140    0.2000   23.7650 C   0  0  0  0  0  0  0  0  0  0  0  0
   10.6410    0.6910   24.2280 C   0  0  0  0  0  0  0  0  0  0  0  0
  1  2  2  0
  2  3  1  0
  2  5  1  0
  3  4  1  0
  5  6  1  0
  6  7  1  0
  7 22  2  0
  7  8  1  0
  8  9  2  0
  9 10  1  0
 10 11  1  0
 10 21  2  0
 11 12  1  0
 12 13  2  0
 12 14  1  0
 14 15  1  0
 15 16  2  0
 15 20  1  0
 16 17  1  0
 17 18  2  0
 18 19  1  0
 19 20  2  0
 21 22  1  0
M  END
>  <original SMILES>  (254) 
N=C(CO)NCc1ccc(NC(=O)Nc2cccnc2)cc1

>  <AutoDock Predicted Affinity>  (254) 
-5.51569

>  <ref_pdb>  (254) 
x0434_0

>  <ref_mols>  (254) 
x0434_0

>  <creator>  (254) 
Will Poole

>  <energy minimised>  (254) 
True

$$$$
WPC0526_minimised.pdb
     RDKit          3D

 24 25  0  0  0  0  0  0  0  0999 V2000
   14.4150    2.9490   21.1970 N   0  0  0  0  0  0  0  0  0  0  0  0
   14.2970    2.6130   22.4110 C   0  0  0  0  0  0  0  0  0  0  0  0
   14.0560    1.2060   22.9190 C   0  0  0  0  0  0  0  0  0  0  0  0
   12.5930    0.7840   22.8770 C   0  0  0  0  0  0  0  0  0  0  0  0
   12.2140   -0.4090   22.2330 C   0  0  0  0  0  0  0  0  0  0  0  0
   10.8560   -0.7210   22.0660 C   0  0  0  0  0  0  0  0  0  0  0  0
    9.8710    0.1450   22.5640 C   0  0  0  0  0  0  0  0  0  0  0  0
    8.5130   -0.0650   22.2500 N   0  0  0  0  0  0  0  0  0  0  0  0
    8.0080    0.0760   20.9860 C   0  0  0  0  0  0  0  0  0  0  0  0
    8.7010    0.2240   20.0000 O   0  0  0  0  0  0  0  0  0  0  0  0
    6.6410    0.0810   20.9240 N   0  0  0  0  0  0  0  0  0  0  0  0
    5.8980    0.5050   19.7950 C   0  0  0  0  0  0  0  0  0  0  0  0
    4.9020    1.4740   19.9730 C   0  0  0  0  0  0  0  0  0  0  0  0
    4.2840    1.9920   18.8300 C   0  0  0  0  0  0  0  0  0  0  0  0
    4.6810    1.5390   17.5630 C   0  0  0  0  0  0  0  0  0  0  0  0
    5.5990    0.5640   17.3790 N   0  0  0  0  0  0  0  0  0  0  0  0
    6.2080    0.0790   18.4820 C   0  0  0  0  0  0  0  0  0  0  0  0
   10.2440    1.2930   23.2770 C   0  0  0  0  0  0  0  0  0  0  0  0
   11.6010    1.6080   23.4400 C   0  0  0  0  0  0  0  0  0  0  0  0
   14.3480    3.6200   23.3230 N   0  0  0  0  0  0  0  0  0  0  0  0
   13.7510    4.9720   23.1480 C   0  0  0  0  0  0  0  0  0  0  0  0
   12.3100    4.9710   22.6240 C   0  0  0  0  0  0  0  0  0  0  0  0
   11.3910    5.5020   23.2170 O   0  0  0  0  0  0  0  0  0  0  0  0
   12.1790    4.4290   21.4050 O   0  0  0  0  0  0  0  0  0  0  0  0
  1  2  2  0
  2 20  1  0
  2  3  1  0
  3  4  1  0
  4 19  2  0
  4  5  1  0
  5  6  2  0
  6  7  1  0
  7  8  1  0
  7 18  2  0
  8  9  1  0
  9 10  2  0
  9 11  1  0
 11 12  1  0
 12 13  2  0
 12 17  1  0
 13 14  1  0
 14 15  2  0
 15 16  1  0
 16 17  2  0
 18 19  1  0
 20 21  1  0
 21 22  1  0
 22 23  2  0
 22 24  1  0
M  END
>  <original SMILES>  (255) 
N=C(Cc1ccc(NC(=O)Nc2cccnc2)cc1)NCC(=O)O

>  <AutoDock Predicted Affinity>  (255) 
-5.98543

>  <ref_pdb>  (255) 
x0434_0

>  <ref_mols>  (255) 
x0434_0

>  <creator>  (255) 
Will Poole

>  <energy minimised>  (255) 
True

$$$$
WPC0655_minimised.pdb
     RDKit          3D

 21 22  0  0  0  0  0  0  0  0999 V2000
   15.1850    4.3980   23.1700 N   0  0  0  0  0  0  0  0  0  0  0  0
   14.1140    3.9020   22.6940 C   0  0  0  0  0  0  0  0  0  0  0  0
   13.9710    2.4000   22.5190 C   0  0  0  0  0  0  0  0  0  0  0  0
   12.5810    1.7760   22.5530 C   0  0  0  0  0  0  0  0  0  0  0  0
   12.3670    0.6040   21.8080 C   0  0  0  0  0  0  0  0  0  0  0  0
   11.0930    0.0240   21.7490 C   0  0  0  0  0  0  0  0  0  0  0  0
   10.0190    0.6180   22.4280 C   0  0  0  0  0  0  0  0  0  0  0  0
    8.6970    0.1930   22.1750 N   0  0  0  0  0  0  0  0  0  0  0  0
    8.1580    0.1680   20.9160 C   0  0  0  0  0  0  0  0  0  0  0  0
    8.8210    0.2660   19.9020 O   0  0  0  0  0  0  0  0  0  0  0  0
    6.7900    0.1080   20.8850 N   0  0  0  0  0  0  0  0  0  0  0  0
    6.0220    0.5220   19.7680 C   0  0  0  0  0  0  0  0  0  0  0  0
    5.0470    1.5080   19.9600 C   0  0  0  0  0  0  0  0  0  0  0  0
    4.4370    2.0520   18.8240 C   0  0  0  0  0  0  0  0  0  0  0  0
    4.8330    1.6210   17.5520 C   0  0  0  0  0  0  0  0  0  0  0  0
    5.7240    0.6240   17.3550 N   0  0  0  0  0  0  0  0  0  0  0  0
    6.3150    0.1020   18.4510 C   0  0  0  0  0  0  0  0  0  0  0  0
   10.2450    1.7340   23.2490 C   0  0  0  0  0  0  0  0  0  0  0  0
   11.5270    2.3040   23.3240 C   0  0  0  0  0  0  0  0  0  0  0  0
   13.0880    4.7640   22.3560 N   0  0  0  0  0  0  0  0  0  0  0  0
   12.8130    5.7220   23.3900 O   0  0  0  0  0  0  0  0  0  0  0  0
  1  2  2  0
  2 20  1  0
  2  3  1  0
  3  4  1  0
  4 19  2  0
  4  5  1  0
  5  6  2  0
  6  7  1  0
  7  8  1  0
  7 18  2  0
  8  9  1  0
  9 10  2  0
  9 11  1  0
 11 12  1  0
 12 13  2  0
 12 17  1  0
 13 14  1  0
 14 15  2  0
 15 16  1  0
 16 17  2  0
 18 19  1  0
 20 21  1  0
M  END
>  <original SMILES>  (256) 
N=C(Cc1ccc(NC(=O)Nc2cccnc2)cc1)NO

>  <AutoDock Predicted Affinity>  (256) 
-6.958103

>  <ref_pdb>  (256) 
x0434_0

>  <ref_mols>  (256) 
x0434_0

>  <creator>  (256) 
Will Poole

>  <energy minimised>  (256) 
True

$$$$
WPC0953_minimised.pdb
     RDKit          3D

 21 22  0  0  0  0  0  0  0  0999 V2000
   14.2290    4.2880   23.1470 N   0  0  0  0  0  0  0  0  0  0  0  0
   13.5490    3.2860   22.7820 C   0  0  0  0  0  0  0  0  0  0  0  0
   12.2120    3.4810   22.6400 N   0  0  0  0  0  0  0  0  0  0  0  0
   14.1220    1.9100   22.5020 C   0  0  0  0  0  0  0  0  0  0  0  0
   13.6180    0.7630   23.4070 C   0  0  0  0  0  0  0  0  0  0  0  0
   12.1750    0.3880   23.1420 C   0  0  0  0  0  0  0  0  0  0  0  0
   11.8630   -0.4670   22.0740 C   0  0  0  0  0  0  0  0  0  0  0  0
   10.5230   -0.7450   21.7780 C   0  0  0  0  0  0  0  0  0  0  0  0
    9.4940   -0.1510   22.5220 C   0  0  0  0  0  0  0  0  0  0  0  0
    8.1590   -0.2580   22.0860 N   0  0  0  0  0  0  0  0  0  0  0  0
    7.7490    0.0440   20.8160 C   0  0  0  0  0  0  0  0  0  0  0  0
    8.5030    0.2900   19.8930 O   0  0  0  0  0  0  0  0  0  0  0  0
    6.3890    0.0870   20.6860 N   0  0  0  0  0  0  0  0  0  0  0  0
    5.7110    0.6190   19.5650 C   0  0  0  0  0  0  0  0  0  0  0  0
    4.7280    1.5940   19.7700 C   0  0  0  0  0  0  0  0  0  0  0  0
    4.1860    2.2170   18.6390 C   0  0  0  0  0  0  0  0  0  0  0  0
    4.6480    1.8620   17.3640 C   0  0  0  0  0  0  0  0  0  0  0  0
    5.5570    0.8820   17.1530 N   0  0  0  0  0  0  0  0  0  0  0  0
    6.0850    0.2910   18.2430 C   0  0  0  0  0  0  0  0  0  0  0  0
    9.8030    0.6470   23.6320 C   0  0  0  0  0  0  0  0  0  0  0  0
   11.1440    0.9070   23.9480 C   0  0  0  0  0  0  0  0  0  0  0  0
  1  2  2  0
  2  3  1  0
  2  4  1  0
  4  5  1  0
  5  6  1  0
  6 21  2  0
  6  7  1  0
  7  8  2  0
  8  9  1  0
  9 10  1  0
  9 20  2  0
 10 11  1  0
 11 12  2  0
 11 13  1  0
 13 14  1  0
 14 15  2  0
 14 19  1  0
 15 16  1  0
 16 17  2  0
 17 18  1  0
 18 19  2  0
 20 21  1  0
M  END
>  <original SMILES>  (257) 
N=C(N)CCc1ccc(NC(=O)Nc2cccnc2)cc1

>  <AutoDock Predicted Affinity>  (257) 
-6.266773

>  <ref_pdb>  (257) 
x0434_0

>  <ref_mols>  (257) 
x0434_0

>  <creator>  (257) 
Will Poole

>  <energy minimised>  (257) 
True

$$$$
WPC0484_minimised.pdb
     RDKit          3D

 24 25  0  0  0  0  0  0  0  0999 V2000
   11.7560    5.4550   23.5950 N   0  0  0  0  0  0  0  0  0  0  0  0
   11.5500    4.2980   23.1780 C   0  0  0  0  0  0  0  0  0  0  0  0
   10.3210    3.8610   22.9420 N   0  0  0  0  0  0  0  0  0  0  0  0
   12.4510    3.3320   22.9810 N   0  0  0  0  0  0  0  0  0  0  0  0
   13.8030    3.4300   22.8670 C   0  0  0  0  0  0  0  0  0  0  0  0
   14.4150    4.5050   23.1320 N   0  0  0  0  0  0  0  0  0  0  0  0
   14.4650    1.9200   22.3360 S   0  0  0  0  0  0  0  0  0  0  0  0
   13.7850    0.6330   23.4680 C   0  0  0  0  0  0  0  0  0  0  0  0
   12.3360    0.3030   23.1860 C   0  0  0  0  0  0  0  0  0  0  0  0
   12.0060   -0.4120   22.0270 C   0  0  0  0  0  0  0  0  0  0  0  0
   10.6620   -0.6590   21.7280 C   0  0  0  0  0  0  0  0  0  0  0  0
    9.6450   -0.1740   22.5630 C   0  0  0  0  0  0  0  0  0  0  0  0
    8.3000   -0.2440   22.1460 N   0  0  0  0  0  0  0  0  0  0  0  0
    7.8660    0.1420   20.9060 C   0  0  0  0  0  0  0  0  0  0  0  0
    8.6070    0.4970   20.0090 O   0  0  0  0  0  0  0  0  0  0  0  0
    6.5080    0.1240   20.7680 N   0  0  0  0  0  0  0  0  0  0  0  0
    5.8210    0.6320   19.6420 C   0  0  0  0  0  0  0  0  0  0  0  0
    4.8290    1.6020   19.8290 C   0  0  0  0  0  0  0  0  0  0  0  0
    4.2860    2.2000   18.6860 C   0  0  0  0  0  0  0  0  0  0  0  0
    4.7550    1.8290   17.4180 C   0  0  0  0  0  0  0  0  0  0  0  0
    5.6710    0.8530   17.2260 N   0  0  0  0  0  0  0  0  0  0  0  0
    6.2020    0.2850   18.3270 C   0  0  0  0  0  0  0  0  0  0  0  0
    9.9730    0.4810   23.7570 C   0  0  0  0  0  0  0  0  0  0  0  0
   11.3190    0.7090   24.0720 C   0  0  0  0  0  0  0  0  0  0  0  0
  1  2  2  0
  2  3  1  0
  2  4  1  0
  4  5  1  0
  5  6  2  0
  5  7  1  0
  7  8  1  0
  8  9  1  0
  9 24  2  0
  9 10  1  0
 10 11  2  0
 11 12  1  0
 12 13  1  0
 12 23  2  0
 13 14  1  0
 14 15  2  0
 14 16  1  0
 16 17  1  0
 17 18  2  0
 17 22  1  0
 18 19  1  0
 19 20  2  0
 20 21  1  0
 21 22  2  0
 23 24  1  0
M  END
>  <original SMILES>  (258) 
N=C(N)NC(=N)SCc1ccc(NC(=O)Nc2cccnc2)cc1

>  <AutoDock Predicted Affinity>  (258) 
-6.382855

>  <ref_pdb>  (258) 
x0434_0

>  <ref_mols>  (258) 
x0434_0

>  <creator>  (258) 
Will Poole

>  <energy minimised>  (258) 
True

$$$$
WPC0495_minimised.pdb
     RDKit          3D

 24 25  0  0  0  0  0  0  0  0999 V2000
   14.1520    6.0480   21.5320 N   0  0  0  0  0  0  0  0  0  0  0  0
   13.4640    5.3330   22.2920 C   0  0  0  0  0  0  0  0  0  0  0  0
   13.0190    5.8730   23.4380 N   0  0  0  0  0  0  0  0  0  0  0  0
   13.7460    4.0050   22.3950 N   0  0  0  0  0  0  0  0  0  0  0  0
   13.1690    3.0750   23.1970 C   0  0  0  0  0  0  0  0  0  0  0  0
   12.3120    3.3160   24.0250 O   0  0  0  0  0  0  0  0  0  0  0  0
   13.7450    1.8480   23.0310 N   0  0  0  0  0  0  0  0  0  0  0  0
   13.3600    0.6420   23.7550 C   0  0  0  0  0  0  0  0  0  0  0  0
   11.9730    0.1790   23.3750 C   0  0  0  0  0  0  0  0  0  0  0  0
   11.7810   -0.6360   22.2480 C   0  0  0  0  0  0  0  0  0  0  0  0
   10.4800   -0.9640   21.8460 C   0  0  0  0  0  0  0  0  0  0  0  0
    9.3750   -0.4660   22.5520 C   0  0  0  0  0  0  0  0  0  0  0  0
    8.0730   -0.6060   22.0350 N   0  0  0  0  0  0  0  0  0  0  0  0
    7.7160   -0.2560   20.7610 C   0  0  0  0  0  0  0  0  0  0  0  0
    8.5010   -0.0190   19.8620 O   0  0  0  0  0  0  0  0  0  0  0  0
    6.3620   -0.1490   20.6100 N   0  0  0  0  0  0  0  0  0  0  0  0
    5.7250    0.4650   19.5080 C   0  0  0  0  0  0  0  0  0  0  0  0
    4.7610    1.4520   19.7470 C   0  0  0  0  0  0  0  0  0  0  0  0
    4.2490    2.1420   18.6420 C   0  0  0  0  0  0  0  0  0  0  0  0
    4.7230    1.8420   17.3570 C   0  0  0  0  0  0  0  0  0  0  0  0
    5.6180    0.8570   17.1130 N   0  0  0  0  0  0  0  0  0  0  0  0
    6.1160    0.1990   18.1780 C   0  0  0  0  0  0  0  0  0  0  0  0
    9.5670    0.2900   23.7150 C   0  0  0  0  0  0  0  0  0  0  0  0
   10.8670    0.6080   24.1300 C   0  0  0  0  0  0  0  0  0  0  0  0
  1  2  2  0
  2  3  1  0
  2  4  1  0
  4  5  1  0
  5  6  2  0
  5  7  1  0
  7  8  1  0
  8  9  1  0
  9 24  2  0
  9 10  1  0
 10 11  2  0
 11 12  1  0
 12 13  1  0
 12 23  2  0
 13 14  1  0
 14 15  2  0
 14 16  1  0
 16 17  1  0
 17 18  2  0
 17 22  1  0
 18 19  1  0
 19 20  2  0
 20 21  1  0
 21 22  2  0
 23 24  1  0
M  END
>  <original SMILES>  (259) 
N=C(N)NC(=O)NCc1ccc(NC(=O)Nc2cccnc2)cc1

>  <AutoDock Predicted Affinity>  (259) 
-7.12781

>  <ref_pdb>  (259) 
x0434_0

>  <ref_mols>  (259) 
x0434_0

>  <creator>  (259) 
Will Poole

>  <energy minimised>  (259) 
True

$$$$
WPC0492_minimised.pdb
     RDKit          3D

 22 23  0  0  0  0  0  0  0  0999 V2000
   14.4390    4.6630   23.3310 N   0  0  0  0  0  0  0  0  0  0  0  0
   13.4410    4.2250   22.7180 C   0  0  0  0  0  0  0  0  0  0  0  0
   12.7100    5.0430   21.9690 N   0  0  0  0  0  0  0  0  0  0  0  0
   13.2810    2.9540   22.3050 N   0  0  0  0  0  0  0  0  0  0  0  0
   14.2600    1.8690   22.4940 C   0  0  0  0  0  0  0  0  0  0  0  0
   13.7030    0.6970   23.3250 C   0  0  0  0  0  0  0  0  0  0  0  0
   12.2510    0.3630   23.0400 C   0  0  0  0  0  0  0  0  0  0  0  0
   11.9160   -0.6100   22.0850 C   0  0  0  0  0  0  0  0  0  0  0  0
   10.5690   -0.8710   21.8040 C   0  0  0  0  0  0  0  0  0  0  0  0
    9.5580   -0.1590   22.4640 C   0  0  0  0  0  0  0  0  0  0  0  0
    8.2190   -0.2870   22.0510 N   0  0  0  0  0  0  0  0  0  0  0  0
    7.8000   -0.0400   20.7730 C   0  0  0  0  0  0  0  0  0  0  0  0
    8.5510    0.1360   19.8330 O   0  0  0  0  0  0  0  0  0  0  0  0
    6.4410    0.0480   20.6620 N   0  0  0  0  0  0  0  0  0  0  0  0
    5.7620    0.5930   19.5470 C   0  0  0  0  0  0  0  0  0  0  0  0
    4.7930    1.5800   19.7650 C   0  0  0  0  0  0  0  0  0  0  0  0
    4.2480    2.2130   18.6420 C   0  0  0  0  0  0  0  0  0  0  0  0
    4.6930    1.8580   17.3610 C   0  0  0  0  0  0  0  0  0  0  0  0
    5.5850    0.8660   17.1390 N   0  0  0  0  0  0  0  0  0  0  0  0
    6.1180    0.2630   18.2210 C   0  0  0  0  0  0  0  0  0  0  0  0
    9.8870    0.7720   23.4570 C   0  0  0  0  0  0  0  0  0  0  0  0
   11.2330    1.0290   23.7490 C   0  0  0  0  0  0  0  0  0  0  0  0
  1  2  2  0
  2  3  1  0
  2  4  1  0
  4  5  1  0
  5  6  1  0
  6  7  1  0
  7 22  2  0
  7  8  1  0
  8  9  2  0
  9 10  1  0
 10 11  1  0
 10 21  2  0
 11 12  1  0
 12 13  2  0
 12 14  1  0
 14 15  1  0
 15 16  2  0
 15 20  1  0
 16 17  1  0
 17 18  2  0
 18 19  1  0
 19 20  2  0
 21 22  1  0
M  END
>  <original SMILES>  (260) 
N=C(N)NCCc1ccc(NC(=O)Nc2cccnc2)cc1

>  <AutoDock Predicted Affinity>  (260) 
-7.337927

>  <ref_pdb>  (260) 
x0434_0

>  <ref_mols>  (260) 
x0434_0

>  <creator>  (260) 
Will Poole

>  <energy minimised>  (260) 
True

$$$$
WPC0776_minimised.pdb
     RDKit          3D

 21 22  0  0  0  0  0  0  0  0999 V2000
   11.6970    3.8540   24.2950 N   0  0  0  0  0  0  0  0  0  0  0  0
   12.3020    3.5340   23.2410 C   0  0  0  0  0  0  0  0  0  0  0  0
   12.4140    4.4190   22.2420 N   0  0  0  0  0  0  0  0  0  0  0  0
   13.1680    2.5080   23.1370 O   0  0  0  0  0  0  0  0  0  0  0  0
   12.9560    1.2770   23.8440 C   0  0  0  0  0  0  0  0  0  0  0  0
   11.6620    0.6300   23.4090 C   0  0  0  0  0  0  0  0  0  0  0  0
   11.6240   -0.1680   22.2560 C   0  0  0  0  0  0  0  0  0  0  0  0
   10.3970   -0.6710   21.8060 C   0  0  0  0  0  0  0  0  0  0  0  0
    9.2120   -0.3540   22.4880 C   0  0  0  0  0  0  0  0  0  0  0  0
    7.9560   -0.6260   21.9150 N   0  0  0  0  0  0  0  0  0  0  0  0
    7.6130   -0.2600   20.6430 C   0  0  0  0  0  0  0  0  0  0  0  0
    8.4040    0.0330   19.7650 O   0  0  0  0  0  0  0  0  0  0  0  0
    6.2610   -0.1810   20.4730 N   0  0  0  0  0  0  0  0  0  0  0  0
    5.6370    0.4760   19.3880 C   0  0  0  0  0  0  0  0  0  0  0  0
    4.6840    1.4680   19.6480 C   0  0  0  0  0  0  0  0  0  0  0  0
    4.1960    2.2010   18.5580 C   0  0  0  0  0  0  0  0  0  0  0  0
    4.6850    1.9370   17.2710 C   0  0  0  0  0  0  0  0  0  0  0  0
    5.5770    0.9550   17.0090 N   0  0  0  0  0  0  0  0  0  0  0  0
    6.0460    0.2510   18.0580 C   0  0  0  0  0  0  0  0  0  0  0  0
    9.2610    0.3810   23.6800 C   0  0  0  0  0  0  0  0  0  0  0  0
   10.4880    0.8670   24.1470 C   0  0  0  0  0  0  0  0  0  0  0  0
  1  2  2  0
  2  3  1  0
  2  4  1  0
  4  5  1  0
  5  6  1  0
  6 21  2  0
  6  7  1  0
  7  8  2  0
  8  9  1  0
  9 10  1  0
  9 20  2  0
 10 11  1  0
 11 12  2  0
 11 13  1  0
 13 14  1  0
 14 15  2  0
 14 19  1  0
 15 16  1  0
 16 17  2  0
 17 18  1  0
 18 19  2  0
 20 21  1  0
M  END
>  <original SMILES>  (261) 
N=C(N)OCc1ccc(NC(=O)Nc2cccnc2)cc1

>  <AutoDock Predicted Affinity>  (261) 
-5.54679

>  <ref_pdb>  (261) 
x0434_0

>  <ref_mols>  (261) 
x0434_0

>  <creator>  (261) 
Will Poole

>  <energy minimised>  (261) 
True

$$$$
WPC0943_minimised.pdb
     RDKit          3D

 23 24  0  0  0  0  0  0  0  0999 V2000
   10.1190    6.3070   23.6700 N   0  0  0  0  0  0  0  0  0  0  0  0
   10.5000    5.1190   23.5110 C   0  0  0  0  0  0  0  0  0  0  0  0
    9.6180    4.2720   22.9400 N   0  0  0  0  0  0  0  0  0  0  0  0
   11.9650    4.3160   23.9620 S   0  0  0  0  0  0  0  0  0  0  0  0
   12.4640    3.4530   22.4040 C   0  0  0  0  0  0  0  0  0  0  0  0
   13.6550    2.4870   22.6210 C   0  0  0  0  0  0  0  0  0  0  0  0
   13.3520    1.2470   23.4990 C   0  0  0  0  0  0  0  0  0  0  0  0
   12.0060    0.6240   23.2080 C   0  0  0  0  0  0  0  0  0  0  0  0
   11.8420   -0.2170   22.0980 C   0  0  0  0  0  0  0  0  0  0  0  0
   10.5600   -0.6630   21.7560 C   0  0  0  0  0  0  0  0  0  0  0  0
    9.4440   -0.2500   22.5000 C   0  0  0  0  0  0  0  0  0  0  0  0
    8.1430   -0.4720   22.0090 N   0  0  0  0  0  0  0  0  0  0  0  0
    7.7420   -0.1100   20.7510 C   0  0  0  0  0  0  0  0  0  0  0  0
    8.5000    0.2320   19.8620 O   0  0  0  0  0  0  0  0  0  0  0  0
    6.3840   -0.1080   20.5980 N   0  0  0  0  0  0  0  0  0  0  0  0
    5.7180    0.4880   19.5030 C   0  0  0  0  0  0  0  0  0  0  0  0
    4.7500    1.4700   19.7450 C   0  0  0  0  0  0  0  0  0  0  0  0
    4.2310    2.1560   18.6400 C   0  0  0  0  0  0  0  0  0  0  0  0
    4.7020    1.8560   17.3540 C   0  0  0  0  0  0  0  0  0  0  0  0
    5.6010    0.8760   17.1070 N   0  0  0  0  0  0  0  0  0  0  0  0
    6.1060    0.2220   18.1720 C   0  0  0  0  0  0  0  0  0  0  0  0
    9.6170    0.5200   23.6580 C   0  0  0  0  0  0  0  0  0  0  0  0
   10.9010    0.9480   24.0190 C   0  0  0  0  0  0  0  0  0  0  0  0
  1  2  2  0
  2  3  1  0
  2  4  1  0
  4  5  1  0
  5  6  1  0
  6  7  1  0
  7  8  1  0
  8 23  2  0
  8  9  1  0
  9 10  2  0
 10 11  1  0
 11 12  1  0
 11 22  2  0
 12 13  1  0
 13 14  2  0
 13 15  1  0
 15 16  1  0
 16 17  2  0
 16 21  1  0
 17 18  1  0
 18 19  2  0
 19 20  1  0
 20 21  2  0
 22 23  1  0
M  END
>  <original SMILES>  (262) 
N=C(N)SCCCc1ccc(NC(=O)Nc2cccnc2)cc1

>  <AutoDock Predicted Affinity>  (262) 
-5.81674

>  <ref_pdb>  (262) 
x0434_0

>  <ref_mols>  (262) 
x0434_0

>  <creator>  (262) 
Will Poole

>  <energy minimised>  (262) 
True

$$$$
WPC0476_minimised.pdb
     RDKit          3D

 21 22  0  0  0  0  0  0  0  0999 V2000
   12.9840    4.4830   23.8810 N   0  0  0  0  0  0  0  0  0  0  0  0
   13.7330    4.2210   22.9030 C   0  0  0  0  0  0  0  0  0  0  0  0
   14.3900    5.2700   22.3610 N   0  0  0  0  0  0  0  0  0  0  0  0
   14.3890    2.7510   22.2720 S   0  0  0  0  0  0  0  0  0  0  0  0
   13.7110    1.3580   23.2680 C   0  0  0  0  0  0  0  0  0  0  0  0
   12.2920    0.9750   22.9160 C   0  0  0  0  0  0  0  0  0  0  0  0
   12.0470   -0.0720   22.0110 C   0  0  0  0  0  0  0  0  0  0  0  0
   10.7290   -0.4580   21.7310 C   0  0  0  0  0  0  0  0  0  0  0  0
    9.6550    0.2100   22.3390 C   0  0  0  0  0  0  0  0  0  0  0  0
    8.3280   -0.0830   21.9730 N   0  0  0  0  0  0  0  0  0  0  0  0
    7.8540    0.0110   20.6950 C   0  0  0  0  0  0  0  0  0  0  0  0
    8.5630    0.1180   19.7140 O   0  0  0  0  0  0  0  0  0  0  0  0
    6.4890    0.0510   20.6300 N   0  0  0  0  0  0  0  0  0  0  0  0
    5.7710    0.5670   19.5270 C   0  0  0  0  0  0  0  0  0  0  0  0
    4.8090    1.5580   19.7590 C   0  0  0  0  0  0  0  0  0  0  0  0
    4.2390    2.1860   18.6460 C   0  0  0  0  0  0  0  0  0  0  0  0
    4.6630    1.8300   17.3580 C   0  0  0  0  0  0  0  0  0  0  0  0
    5.5490    0.8360   17.1220 N   0  0  0  0  0  0  0  0  0  0  0  0
    6.0980    0.2310   18.1950 C   0  0  0  0  0  0  0  0  0  0  0  0
    9.8980    1.2430   23.2540 C   0  0  0  0  0  0  0  0  0  0  0  0
   11.2150    1.6210   23.5480 C   0  0  0  0  0  0  0  0  0  0  0  0
  1  2  2  0
  2  3  1  0
  2  4  1  0
  4  5  1  0
  5  6  1  0
  6 21  2  0
  6  7  1  0
  7  8  2  0
  8  9  1  0
  9 10  1  0
  9 20  2  0
 10 11  1  0
 11 12  2  0
 11 13  1  0
 13 14  1  0
 14 15  2  0
 14 19  1  0
 15 16  1  0
 16 17  2  0
 17 18  1  0
 18 19  2  0
 20 21  1  0
M  END
>  <original SMILES>  (263) 
N=C(N)SCc1ccc(NC(=O)Nc2cccnc2)cc1

>  <AutoDock Predicted Affinity>  (263) 
-5.754885

>  <ref_pdb>  (263) 
x0434_0

>  <ref_mols>  (263) 
x0434_0

>  <creator>  (263) 
Will Poole

>  <energy minimised>  (263) 
True

$$$$
WPC0478_minimised.pdb
     RDKit          3D

 22 23  0  0  0  0  0  0  0  0999 V2000
   11.7070    4.6240   22.7370 N   0  0  0  0  0  0  0  0  0  0  0  0
   12.4990    3.4170   22.7070 N   0  0  0  0  0  0  0  0  0  0  0  0
   13.8800    3.4060   22.7500 C   0  0  0  0  0  0  0  0  0  0  0  0
   14.4830    4.4690   23.0820 N   0  0  0  0  0  0  0  0  0  0  0  0
   14.5310    1.8680   22.2870 S   0  0  0  0  0  0  0  0  0  0  0  0
   13.7680    0.6330   23.4150 C   0  0  0  0  0  0  0  0  0  0  0  0
   12.3170    0.3350   23.1030 C   0  0  0  0  0  0  0  0  0  0  0  0
   11.9950   -0.5120   22.0320 C   0  0  0  0  0  0  0  0  0  0  0  0
   10.6510   -0.7720   21.7350 C   0  0  0  0  0  0  0  0  0  0  0  0
    9.6280   -0.1720   22.4830 C   0  0  0  0  0  0  0  0  0  0  0  0
    8.2870   -0.2910   22.0720 N   0  0  0  0  0  0  0  0  0  0  0  0
    7.8490    0.0090   20.8110 C   0  0  0  0  0  0  0  0  0  0  0  0
    8.5870    0.2750   19.8820 O   0  0  0  0  0  0  0  0  0  0  0  0
    6.4870    0.0260   20.6970 N   0  0  0  0  0  0  0  0  0  0  0  0
    5.7920    0.5560   19.5850 C   0  0  0  0  0  0  0  0  0  0  0  0
    4.8090    1.5280   19.8030 C   0  0  0  0  0  0  0  0  0  0  0  0
    4.2540    2.1530   18.6800 C   0  0  0  0  0  0  0  0  0  0  0  0
    4.7050    1.8050   17.3990 C   0  0  0  0  0  0  0  0  0  0  0  0
    5.6120    0.8280   17.1760 N   0  0  0  0  0  0  0  0  0  0  0  0
    6.1530    0.2320   18.2580 C   0  0  0  0  0  0  0  0  0  0  0  0
    9.9470    0.6330   23.5840 C   0  0  0  0  0  0  0  0  0  0  0  0
   11.2900    0.8780   23.8990 C   0  0  0  0  0  0  0  0  0  0  0  0
  1  2  1  0
  2  3  1  0
  3  4  2  0
  3  5  1  0
  5  6  1  0
  6  7  1  0
  7 22  2  0
  7  8  1  0
  8  9  2  0
  9 10  1  0
 10 11  1  0
 10 21  2  0
 11 12  1  0
 12 13  2  0
 12 14  1  0
 14 15  1  0
 15 16  2  0
 15 20  1  0
 16 17  1  0
 17 18  2  0
 18 19  1  0
 19 20  2  0
 21 22  1  0
M  END
>  <original SMILES>  (264) 
N=C(NN)SCc1ccc(NC(=O)Nc2cccnc2)cc1

>  <AutoDock Predicted Affinity>  (264) 
-5.853097

>  <ref_pdb>  (264) 
x0434_0

>  <ref_mols>  (264) 
x0434_0

>  <creator>  (264) 
Will Poole

>  <energy minimised>  (264) 
True

$$$$
WPC0792_minimised.pdb
     RDKit          3D

 22 23  0  0  0  0  0  0  0  0999 V2000
   11.9530    3.6190   24.1740 N   0  0  0  0  0  0  0  0  0  0  0  0
   12.7760    3.2790   23.2860 C   0  0  0  0  0  0  0  0  0  0  0  0
   13.2480    4.1620   22.3620 N   0  0  0  0  0  0  0  0  0  0  0  0
   12.3500    5.1930   21.9220 O   0  0  0  0  0  0  0  0  0  0  0  0
   13.5640    2.1760   23.3090 N   0  0  0  0  0  0  0  0  0  0  0  0
   13.2400    0.8680   23.8820 C   0  0  0  0  0  0  0  0  0  0  0  0
   11.8810    0.3730   23.4410 C   0  0  0  0  0  0  0  0  0  0  0  0
   11.7520   -0.3950   22.2730 C   0  0  0  0  0  0  0  0  0  0  0  0
   10.4770   -0.7680   21.8280 C   0  0  0  0  0  0  0  0  0  0  0  0
    9.3340   -0.3570   22.5310 C   0  0  0  0  0  0  0  0  0  0  0  0
    8.0490   -0.5340   21.9850 N   0  0  0  0  0  0  0  0  0  0  0  0
    7.6980   -0.1700   20.7140 C   0  0  0  0  0  0  0  0  0  0  0  0
    8.4850    0.1080   19.8290 O   0  0  0  0  0  0  0  0  0  0  0  0
    6.3450   -0.0880   20.5470 N   0  0  0  0  0  0  0  0  0  0  0  0
    5.7130    0.5310   19.4450 C   0  0  0  0  0  0  0  0  0  0  0  0
    4.7460    1.5150   19.6820 C   0  0  0  0  0  0  0  0  0  0  0  0
    4.2460    2.2130   18.5760 C   0  0  0  0  0  0  0  0  0  0  0  0
    4.7370    1.9260   17.2950 C   0  0  0  0  0  0  0  0  0  0  0  0
    5.6380    0.9460   17.0540 N   0  0  0  0  0  0  0  0  0  0  0  0
    6.1200    0.2760   18.1190 C   0  0  0  0  0  0  0  0  0  0  0  0
    9.4670    0.3500   23.7330 C   0  0  0  0  0  0  0  0  0  0  0  0
   10.7410    0.7080   24.1930 C   0  0  0  0  0  0  0  0  0  0  0  0
  1  2  2  0
  2  3  1  0
  2  5  1  0
  3  4  1  0
  5  6  1  0
  6  7  1  0
  7 22  2  0
  7  8  1  0
  8  9  2  0
  9 10  1  0
 10 11  1  0
 10 21  2  0
 11 12  1  0
 12 13  2  0
 12 14  1  0
 14 15  1  0
 15 16  2  0
 15 20  1  0
 16 17  1  0
 17 18  2  0
 18 19  1  0
 19 20  2  0
 21 22  1  0
M  END
>  <original SMILES>  (265) 
N=C(NO)NCc1ccc(NC(=O)Nc2cccnc2)cc1

>  <AutoDock Predicted Affinity>  (265) 
-5.93243

>  <ref_pdb>  (265) 
x0434_0

>  <ref_mols>  (265) 
x0434_0

>  <creator>  (265) 
Will Poole

>  <energy minimised>  (265) 
True

$$$$
WPC0439_minimised.pdb
     RDKit          3D

 23 24  0  0  0  0  0  0  0  0999 V2000
   12.0810    5.1340   22.4980 N   0  0  0  0  0  0  0  0  0  0  0  0
   13.3660    5.1630   22.0460 C   0  0  0  0  0  0  0  0  0  0  0  0
   13.7510    6.0780   21.3510 O   0  0  0  0  0  0  0  0  0  0  0  0
   14.2490    3.9850   22.4360 C   0  0  0  0  0  0  0  0  0  0  0  0
   13.4680    2.6640   22.6340 C   0  0  0  0  0  0  0  0  0  0  0  0
   14.3490    1.4060   22.4890 C   0  0  0  0  0  0  0  0  0  0  0  0
   13.8210    0.2190   23.3130 C   0  0  0  0  0  0  0  0  0  0  0  0
   12.3460   -0.0560   23.0770 C   0  0  0  0  0  0  0  0  0  0  0  0
   11.9490   -0.8490   21.9900 C   0  0  0  0  0  0  0  0  0  0  0  0
   10.5850   -1.0280   21.7260 C   0  0  0  0  0  0  0  0  0  0  0  0
    9.6160   -0.3960   22.5160 C   0  0  0  0  0  0  0  0  0  0  0  0
    8.2670   -0.4020   22.1100 N   0  0  0  0  0  0  0  0  0  0  0  0
    7.8460   -0.0260   20.8610 C   0  0  0  0  0  0  0  0  0  0  0  0
    8.5950    0.2510   19.9440 O   0  0  0  0  0  0  0  0  0  0  0  0
    6.4860    0.0370   20.7430 N   0  0  0  0  0  0  0  0  0  0  0  0
    5.8030    0.5720   19.6250 C   0  0  0  0  0  0  0  0  0  0  0  0
    4.8170    1.5440   19.8310 C   0  0  0  0  0  0  0  0  0  0  0  0
    4.2660    2.1600   18.7010 C   0  0  0  0  0  0  0  0  0  0  0  0
    4.7230    1.8030   17.4240 C   0  0  0  0  0  0  0  0  0  0  0  0
    5.6340    0.8260   17.2120 N   0  0  0  0  0  0  0  0  0  0  0  0
    6.1720    0.2410   18.3020 C   0  0  0  0  0  0  0  0  0  0  0  0
   10.0060    0.3360   23.6450 C   0  0  0  0  0  0  0  0  0  0  0  0
   11.3690    0.4950   23.9290 C   0  0  0  0  0  0  0  0  0  0  0  0
  1  2  1  0
  2  3  2  0
  2  4  1  0
  4  5  1  0
  5  6  1  0
  6  7  1  0
  7  8  1  0
  8 23  2  0
  8  9  1  0
  9 10  2  0
 10 11  1  0
 11 12  1  0
 11 22  2  0
 12 13  1  0
 13 14  2  0
 13 15  1  0
 15 16  1  0
 16 17  2  0
 16 21  1  0
 17 18  1  0
 18 19  2  0
 19 20  1  0
 20 21  2  0
 22 23  1  0
M  END
>  <original SMILES>  (266) 
NC(=O)CCCCc1ccc(NC(=O)Nc2cccnc2)cc1

>  <AutoDock Predicted Affinity>  (266) 
-6.368634

>  <ref_pdb>  (266) 
x0434_0

>  <ref_mols>  (266) 
x0434_0

>  <creator>  (266) 
Will Poole

>  <energy minimised>  (266) 
True

$$$$
WPC0580_minimised.pdb
     RDKit          3D

 21 22  0  0  0  0  0  0  0  0999 V2000
   12.4080    3.5080   22.5480 N   0  0  0  0  0  0  0  0  0  0  0  0
   13.7210    3.2580   22.8030 C   0  0  0  0  0  0  0  0  0  0  0  0
   14.4080    4.1420   23.2750 O   0  0  0  0  0  0  0  0  0  0  0  0
   14.2410    1.8550   22.4810 C   0  0  0  0  0  0  0  0  0  0  0  0
   13.7100    0.7190   23.3820 C   0  0  0  0  0  0  0  0  0  0  0  0
   12.2540    0.3910   23.1240 C   0  0  0  0  0  0  0  0  0  0  0  0
   11.9120   -0.4740   22.0730 C   0  0  0  0  0  0  0  0  0  0  0  0
   10.5630   -0.7260   21.7930 C   0  0  0  0  0  0  0  0  0  0  0  0
    9.5550   -0.0980   22.5380 C   0  0  0  0  0  0  0  0  0  0  0  0
    8.2120   -0.1960   22.1250 N   0  0  0  0  0  0  0  0  0  0  0  0
    7.7830    0.0890   20.8560 C   0  0  0  0  0  0  0  0  0  0  0  0
    8.5270    0.3250   19.9230 O   0  0  0  0  0  0  0  0  0  0  0  0
    6.4220    0.1240   20.7380 N   0  0  0  0  0  0  0  0  0  0  0  0
    5.7330    0.6300   19.6110 C   0  0  0  0  0  0  0  0  0  0  0  0
    4.7460    1.6040   19.8030 C   0  0  0  0  0  0  0  0  0  0  0  0
    4.1930    2.2010   18.6640 C   0  0  0  0  0  0  0  0  0  0  0  0
    4.6470    1.8220   17.3930 C   0  0  0  0  0  0  0  0  0  0  0  0
    5.5580    0.8420   17.1950 N   0  0  0  0  0  0  0  0  0  0  0  0
    6.0990    0.2770   18.2930 C   0  0  0  0  0  0  0  0  0  0  0  0
    9.8930    0.7180   23.6250 C   0  0  0  0  0  0  0  0  0  0  0  0
   11.2430    0.9550   23.9240 C   0  0  0  0  0  0  0  0  0  0  0  0
  1  2  1  0
  2  3  2  0
  2  4  1  0
  4  5  1  0
  5  6  1  0
  6 21  2  0
  6  7  1  0
  7  8  2  0
  8  9  1  0
  9 10  1  0
  9 20  2  0
 10 11  1  0
 11 12  2  0
 11 13  1  0
 13 14  1  0
 14 15  2  0
 14 19  1  0
 15 16  1  0
 16 17  2  0
 17 18  1  0
 18 19  2  0
 20 21  1  0
M  END
>  <original SMILES>  (267) 
NC(=O)CCc1ccc(NC(=O)Nc2cccnc2)cc1

>  <AutoDock Predicted Affinity>  (267) 
-5.90294

>  <ref_pdb>  (267) 
x0434_0

>  <ref_mols>  (267) 
x0434_0

>  <creator>  (267) 
Will Poole

>  <energy minimised>  (267) 
True

$$$$
WPC1021_minimised.pdb
     RDKit          3D

 22 23  0  0  0  0  0  0  0  0999 V2000
   13.0970    5.2030   21.7070 N   0  0  0  0  0  0  0  0  0  0  0  0
   13.6450    4.3160   22.5760 C   0  0  0  0  0  0  0  0  0  0  0  0
   14.5990    4.6410   23.2490 O   0  0  0  0  0  0  0  0  0  0  0  0
   12.9930    2.9480   22.6580 C   0  0  0  0  0  0  0  0  0  0  0  0
   14.2460    1.6250   22.3460 S   0  0  0  0  0  0  0  0  0  0  0  0
   13.6070    0.2680   23.3930 C   0  0  0  0  0  0  0  0  0  0  0  0
   12.1470   -0.0190   23.1120 C   0  0  0  0  0  0  0  0  0  0  0  0
   11.7990   -0.8240   22.0180 C   0  0  0  0  0  0  0  0  0  0  0  0
   10.4480   -1.0270   21.7090 C   0  0  0  0  0  0  0  0  0  0  0  0
    9.4460   -0.4050   22.4660 C   0  0  0  0  0  0  0  0  0  0  0  0
    8.1110   -0.4270   22.0160 N   0  0  0  0  0  0  0  0  0  0  0  0
    7.7330   -0.0520   20.7560 C   0  0  0  0  0  0  0  0  0  0  0  0
    8.5120    0.2030   19.8570 O   0  0  0  0  0  0  0  0  0  0  0  0
    6.3790    0.0480   20.6080 N   0  0  0  0  0  0  0  0  0  0  0  0
    5.7350    0.6240   19.4890 C   0  0  0  0  0  0  0  0  0  0  0  0
    4.7530    1.6000   19.6970 C   0  0  0  0  0  0  0  0  0  0  0  0
    4.2470    2.2610   18.5710 C   0  0  0  0  0  0  0  0  0  0  0  0
    4.7470    1.9500   17.3000 C   0  0  0  0  0  0  0  0  0  0  0  0
    5.6520    0.9680   17.0840 N   0  0  0  0  0  0  0  0  0  0  0  0
    6.1400    0.3330   18.1680 C   0  0  0  0  0  0  0  0  0  0  0  0
    9.7860    0.3440   23.5990 C   0  0  0  0  0  0  0  0  0  0  0  0
   11.1360    0.5270   23.9270 C   0  0  0  0  0  0  0  0  0  0  0  0
  1  2  1  0
  2  3  2  0
  2  4  1  0
  4  5  1  0
  5  6  1  0
  6  7  1  0
  7 22  2  0
  7  8  1  0
  8  9  2  0
  9 10  1  0
 10 11  1  0
 10 21  2  0
 11 12  1  0
 12 13  2  0
 12 14  1  0
 14 15  1  0
 15 16  2  0
 15 20  1  0
 16 17  1  0
 17 18  2  0
 18 19  1  0
 19 20  2  0
 21 22  1  0
M  END
>  <original SMILES>  (268) 
NC(=O)CSCc1ccc(NC(=O)Nc2cccnc2)cc1

>  <AutoDock Predicted Affinity>  (268) 
-6.38386

>  <ref_pdb>  (268) 
x0434_0

>  <ref_mols>  (268) 
x0434_0

>  <creator>  (268) 
Will Poole

>  <energy minimised>  (268) 
True

$$$$
WPC0430_minimised.pdb
     RDKit          3D

 21 22  0  0  0  0  0  0  0  0999 V2000
   11.3080    5.0110   22.8780 N   0  0  0  0  0  0  0  0  0  0  0  0
   12.5700    4.7190   23.2920 C   0  0  0  0  0  0  0  0  0  0  0  0
   12.9400    5.1170   24.3740 O   0  0  0  0  0  0  0  0  0  0  0  0
   13.4420    3.9110   22.3430 C   0  0  0  0  0  0  0  0  0  0  0  0
   13.8360    2.2140   22.9780 S   0  0  0  0  0  0  0  0  0  0  0  0
   12.2920    1.3440   22.9280 C   0  0  0  0  0  0  0  0  0  0  0  0
   12.1430    0.2860   22.0220 C   0  0  0  0  0  0  0  0  0  0  0  0
   10.8830   -0.3010   21.8390 C   0  0  0  0  0  0  0  0  0  0  0  0
    9.7760    0.1730   22.5630 C   0  0  0  0  0  0  0  0  0  0  0  0
    8.4690   -0.2050   22.1860 N   0  0  0  0  0  0  0  0  0  0  0  0
    7.9810   -0.0140   20.9200 C   0  0  0  0  0  0  0  0  0  0  0  0
    8.6800    0.2620   19.9640 O   0  0  0  0  0  0  0  0  0  0  0  0
    6.6180   -0.0860   20.8230 N   0  0  0  0  0  0  0  0  0  0  0  0
    5.8960    0.4230   19.7150 C   0  0  0  0  0  0  0  0  0  0  0  0
    4.9310    1.4140   19.9340 C   0  0  0  0  0  0  0  0  0  0  0  0
    4.3720    2.0380   18.8120 C   0  0  0  0  0  0  0  0  0  0  0  0
    4.7990    1.6700   17.5290 C   0  0  0  0  0  0  0  0  0  0  0  0
    5.6890    0.6770   17.3050 N   0  0  0  0  0  0  0  0  0  0  0  0
    6.2340    0.0820   18.3870 C   0  0  0  0  0  0  0  0  0  0  0  0
    9.9510    1.1560   23.5500 C   0  0  0  0  0  0  0  0  0  0  0  0
   11.2140    1.7390   23.7380 C   0  0  0  0  0  0  0  0  0  0  0  0
  1  2  1  0
  2  3  2  0
  2  4  1  0
  4  5  1  0
  5  6  1  0
  6 21  2  0
  6  7  1  0
  7  8  2  0
  8  9  1  0
  9 10  1  0
  9 20  2  0
 10 11  1  0
 11 12  2  0
 11 13  1  0
 13 14  1  0
 14 15  2  0
 14 19  1  0
 15 16  1  0
 16 17  2  0
 17 18  1  0
 18 19  2  0
 20 21  1  0
M  END
>  <original SMILES>  (269) 
NC(=O)CSc1ccc(NC(=O)Nc2cccnc2)cc1

>  <AutoDock Predicted Affinity>  (269) 
-5.89489

>  <ref_pdb>  (269) 
x0434_0

>  <ref_mols>  (269) 
x0434_0

>  <creator>  (269) 
Will Poole

>  <energy minimised>  (269) 
True

$$$$
WPC0724_minimised.pdb
     RDKit          3D

 20 21  0  0  0  0  0  0  0  0999 V2000
   11.9520    3.6350   22.5120 N   0  0  0  0  0  0  0  0  0  0  0  0
   13.0970    3.2010   23.1080 C   0  0  0  0  0  0  0  0  0  0  0  0
   13.9470    4.0180   23.3960 O   0  0  0  0  0  0  0  0  0  0  0  0
   13.2180    1.6920   23.3970 C   0  0  0  0  0  0  0  0  0  0  0  0
   11.9390    0.9070   23.1650 C   0  0  0  0  0  0  0  0  0  0  0  0
   11.8500    0.0090   22.0920 C   0  0  0  0  0  0  0  0  0  0  0  0
   10.6170   -0.5770   21.7810 C   0  0  0  0  0  0  0  0  0  0  0  0
    9.4730   -0.2500   22.5250 C   0  0  0  0  0  0  0  0  0  0  0  0
    8.1900   -0.5750   22.0390 N   0  0  0  0  0  0  0  0  0  0  0  0
    7.7660   -0.2390   20.7810 C   0  0  0  0  0  0  0  0  0  0  0  0
    8.5040    0.0950   19.8730 O   0  0  0  0  0  0  0  0  0  0  0  0
    6.4060   -0.2340   20.6500 N   0  0  0  0  0  0  0  0  0  0  0  0
    5.7310    0.3760   19.5660 C   0  0  0  0  0  0  0  0  0  0  0  0
    4.7900    1.3810   19.8260 C   0  0  0  0  0  0  0  0  0  0  0  0
    4.2640    2.0780   18.7310 C   0  0  0  0  0  0  0  0  0  0  0  0
    4.6970    1.7630   17.4340 C   0  0  0  0  0  0  0  0  0  0  0  0
    5.5730    0.7660   17.1730 N   0  0  0  0  0  0  0  0  0  0  0  0
    6.0870    0.1030   18.2270 C   0  0  0  0  0  0  0  0  0  0  0  0
    9.5850    0.5570   23.6640 C   0  0  0  0  0  0  0  0  0  0  0  0
   10.8220    1.1280   23.9930 C   0  0  0  0  0  0  0  0  0  0  0  0
  1  2  1  0
  2  3  2  0
  2  4  1  0
  4  5  1  0
  5 20  2  0
  5  6  1  0
  6  7  2  0
  7  8  1  0
  8  9  1  0
  8 19  2  0
  9 10  1  0
 10 11  2  0
 10 12  1  0
 12 13  1  0
 13 14  2  0
 13 18  1  0
 14 15  1  0
 15 16  2  0
 16 17  1  0
 17 18  2  0
 19 20  1  0
M  END
>  <original SMILES>  (270) 
NC(=O)Cc1ccc(NC(=O)Nc2cccnc2)cc1

>  <AutoDock Predicted Affinity>  (270) 
-6.1784

>  <ref_pdb>  (270) 
x0434_0

>  <ref_mols>  (270) 
x0434_0

>  <creator>  (270) 
Will Poole

>  <energy minimised>  (270) 
True

$$$$
WPC0631_minimised.pdb
     RDKit          3D

 24 25  0  0  0  0  0  0  0  0999 V2000
   12.6640    6.9120   25.5600 N   0  0  0  0  0  0  0  0  0  0  0  0
   11.9550    5.9880   24.8780 C   0  0  0  0  0  0  0  0  0  0  0  0
   10.7880    5.8150   25.1120 O   0  0  0  0  0  0  0  0  0  0  0  0
   12.6970    5.2910   23.9850 N   0  0  0  0  0  0  0  0  0  0  0  0
   12.2530    4.2650   23.1890 C   0  0  0  0  0  0  0  0  0  0  0  0
   11.0850    3.9550   23.1130 O   0  0  0  0  0  0  0  0  0  0  0  0
   13.3330    3.5240   22.4150 C   0  0  0  0  0  0  0  0  0  0  0  0
   13.7660    1.8690   23.1500 S   0  0  0  0  0  0  0  0  0  0  0  0
   12.2840    0.9000   23.0120 C   0  0  0  0  0  0  0  0  0  0  0  0
   12.1760   -0.0470   21.9840 C   0  0  0  0  0  0  0  0  0  0  0  0
   10.9380   -0.6560   21.7310 C   0  0  0  0  0  0  0  0  0  0  0  0
    9.8110   -0.3110   22.4960 C   0  0  0  0  0  0  0  0  0  0  0  0
    8.5130   -0.6530   22.0580 N   0  0  0  0  0  0  0  0  0  0  0  0
    8.0390   -0.3340   20.8110 C   0  0  0  0  0  0  0  0  0  0  0  0
    8.7470   -0.0270   19.8710 O   0  0  0  0  0  0  0  0  0  0  0  0
    6.6740   -0.3200   20.7210 N   0  0  0  0  0  0  0  0  0  0  0  0
    5.9660    0.2870   19.6540 C   0  0  0  0  0  0  0  0  0  0  0  0
    5.0290    1.2890   19.9390 C   0  0  0  0  0  0  0  0  0  0  0  0
    4.4680    1.9850   18.8590 C   0  0  0  0  0  0  0  0  0  0  0  0
    4.8670    1.6740   17.5510 C   0  0  0  0  0  0  0  0  0  0  0  0
    5.7320    0.6760   17.2640 N   0  0  0  0  0  0  0  0  0  0  0  0
    6.2810    0.0150   18.3040 C   0  0  0  0  0  0  0  0  0  0  0  0
    9.9540    0.5370   23.6030 C   0  0  0  0  0  0  0  0  0  0  0  0
   11.1970    1.1310   23.8690 C   0  0  0  0  0  0  0  0  0  0  0  0
  1  2  1  0
  2  3  2  0
  2  4  1  0
  4  5  1  0
  5  6  2  0
  5  7  1  0
  7  8  1  0
  8  9  1  0
  9 24  2  0
  9 10  1  0
 10 11  2  0
 11 12  1  0
 12 13  1  0
 12 23  2  0
 13 14  1  0
 14 15  2  0
 14 16  1  0
 16 17  1  0
 17 18  2  0
 17 22  1  0
 18 19  1  0
 19 20  2  0
 20 21  1  0
 21 22  2  0
 23 24  1  0
M  END
>  <original SMILES>  (271) 
NC(=O)NC(=O)CSc1ccc(NC(=O)Nc2cccnc2)cc1

>  <AutoDock Predicted Affinity>  (271) 
-6.20579

>  <ref_pdb>  (271) 
x0434_0

>  <ref_mols>  (271) 
x0434_0

>  <creator>  (271) 
Will Poole

>  <energy minimised>  (271) 
True

$$$$
WPC1058_minimised.pdb
     RDKit          3D

 23 24  0  0  0  0  0  0  0  0999 V2000
    8.9270    5.8490   22.2470 N   0  0  0  0  0  0  0  0  0  0  0  0
    9.9940    5.8940   23.0720 C   0  0  0  0  0  0  0  0  0  0  0  0
   10.0930    6.7360   23.9210 O   0  0  0  0  0  0  0  0  0  0  0  0
   10.8810    4.9120   22.8310 N   0  0  0  0  0  0  0  0  0  0  0  0
   12.0210    4.5640   23.4980 C   0  0  0  0  0  0  0  0  0  0  0  0
   12.5040    5.1890   24.4200 O   0  0  0  0  0  0  0  0  0  0  0  0
   12.6280    3.2620   22.9930 C   0  0  0  0  0  0  0  0  0  0  0  0
   11.7040    2.0500   23.1210 C   0  0  0  0  0  0  0  0  0  0  0  0
   11.8770    0.9770   22.2300 C   0  0  0  0  0  0  0  0  0  0  0  0
   10.8450    0.0490   22.0380 C   0  0  0  0  0  0  0  0  0  0  0  0
    9.6430    0.1900   22.7470 C   0  0  0  0  0  0  0  0  0  0  0  0
    8.4620   -0.4200   22.2740 N   0  0  0  0  0  0  0  0  0  0  0  0
    7.9940   -0.1970   21.0030 C   0  0  0  0  0  0  0  0  0  0  0  0
    8.6900    0.1770   20.0770 O   0  0  0  0  0  0  0  0  0  0  0  0
    6.6390   -0.3360   20.8690 N   0  0  0  0  0  0  0  0  0  0  0  0
    5.9200    0.2180   19.7790 C   0  0  0  0  0  0  0  0  0  0  0  0
    4.9800    1.2270   20.0290 C   0  0  0  0  0  0  0  0  0  0  0  0
    4.4220    1.8880   18.9270 C   0  0  0  0  0  0  0  0  0  0  0  0
    4.8190    1.5300   17.6300 C   0  0  0  0  0  0  0  0  0  0  0  0
    5.6940    0.5310   17.3790 N   0  0  0  0  0  0  0  0  0  0  0  0
    6.2450   -0.0930   18.4410 C   0  0  0  0  0  0  0  0  0  0  0  0
    9.5480    1.1330   23.7800 C   0  0  0  0  0  0  0  0  0  0  0  0
   10.5850    2.0570   23.9780 C   0  0  0  0  0  0  0  0  0  0  0  0
  1  2  1  0
  2  3  2  0
  2  4  1  0
  4  5  1  0
  5  6  2  0
  5  7  1  0
  7  8  1  0
  8 23  2  0
  8  9  1  0
  9 10  2  0
 10 11  1  0
 11 12  1  0
 11 22  2  0
 12 13  1  0
 13 14  2  0
 13 15  1  0
 15 16  1  0
 16 17  2  0
 16 21  1  0
 17 18  1  0
 18 19  2  0
 19 20  1  0
 20 21  2  0
 22 23  1  0
M  END
>  <original SMILES>  (272) 
NC(=O)NC(=O)Cc1ccc(NC(=O)Nc2cccnc2)cc1

>  <AutoDock Predicted Affinity>  (272) 
-7.172165

>  <ref_pdb>  (272) 
x0434_0

>  <ref_mols>  (272) 
x0434_0

>  <creator>  (272) 
Will Poole

>  <energy minimised>  (272) 
True

$$$$
WPC0527_minimised.pdb
     RDKit          3D

 22 23  0  0  0  0  0  0  0  0999 V2000
   12.6710    5.0860   22.3860 N   0  0  0  0  0  0  0  0  0  0  0  0
   13.6410    4.1770   22.6140 C   0  0  0  0  0  0  0  0  0  0  0  0
   14.6200    4.4490   23.2700 O   0  0  0  0  0  0  0  0  0  0  0  0
   13.3830    2.9690   22.0430 N   0  0  0  0  0  0  0  0  0  0  0  0
   14.2810    1.8060   22.1150 C   0  0  0  0  0  0  0  0  0  0  0  0
   13.7980    0.7360   23.1090 C   0  0  0  0  0  0  0  0  0  0  0  0
   12.3490    0.3520   22.8960 C   0  0  0  0  0  0  0  0  0  0  0  0
   12.0080   -0.6630   21.9860 C   0  0  0  0  0  0  0  0  0  0  0  0
   10.6590   -0.9560   21.7490 C   0  0  0  0  0  0  0  0  0  0  0  0
    9.6530   -0.2310   22.4030 C   0  0  0  0  0  0  0  0  0  0  0  0
    8.3100   -0.3770   22.0100 N   0  0  0  0  0  0  0  0  0  0  0  0
    7.8730   -0.0910   20.7470 C   0  0  0  0  0  0  0  0  0  0  0  0
    8.6140    0.1420   19.8110 O   0  0  0  0  0  0  0  0  0  0  0  0
    6.5110   -0.0350   20.6430 N   0  0  0  0  0  0  0  0  0  0  0  0
    5.8220    0.5240   19.5420 C   0  0  0  0  0  0  0  0  0  0  0  0
    4.8480    1.5020   19.7770 C   0  0  0  0  0  0  0  0  0  0  0  0
    4.3040    2.1580   18.6660 C   0  0  0  0  0  0  0  0  0  0  0  0
    4.7590    1.8370   17.3800 C   0  0  0  0  0  0  0  0  0  0  0  0
    5.6550    0.8540   17.1390 N   0  0  0  0  0  0  0  0  0  0  0  0
    6.1820    0.2250   18.2100 C   0  0  0  0  0  0  0  0  0  0  0  0
    9.9900    0.7470   23.3480 C   0  0  0  0  0  0  0  0  0  0  0  0
   11.3380    1.0350   23.5960 C   0  0  0  0  0  0  0  0  0  0  0  0
  1  2  1  0
  2  3  2  0
  2  4  1  0
  4  5  1  0
  5  6  1  0
  6  7  1  0
  7 22  2  0
  7  8  1  0
  8  9  2  0
  9 10  1  0
 10 11  1  0
 10 21  2  0
 11 12  1  0
 12 13  2  0
 12 14  1  0
 14 15  1  0
 15 16  2  0
 15 20  1  0
 16 17  1  0
 17 18  2  0
 18 19  1  0
 19 20  2  0
 21 22  1  0
M  END
>  <original SMILES>  (273) 
NC(=O)NCCc1ccc(NC(=O)Nc2cccnc2)cc1

>  <AutoDock Predicted Affinity>  (273) 
-6.95033

>  <ref_pdb>  (273) 
x0434_0

>  <ref_mols>  (273) 
x0434_0

>  <creator>  (273) 
Will Poole

>  <energy minimised>  (273) 
True

$$$$
WPC1036_minimised.pdb
     RDKit          3D

 21 22  0  0  0  0  0  0  0  0999 V2000
   11.8350    3.2030   22.2430 N   0  0  0  0  0  0  0  0  0  0  0  0
   13.1270    3.4320   22.5660 C   0  0  0  0  0  0  0  0  0  0  0  0
   13.6330    4.5130   22.3920 O   0  0  0  0  0  0  0  0  0  0  0  0
   13.8620    2.4110   23.1110 N   0  0  0  0  0  0  0  0  0  0  0  0
   13.5450    1.0030   23.4400 C   0  0  0  0  0  0  0  0  0  0  0  0
   12.1390    0.4960   23.1950 C   0  0  0  0  0  0  0  0  0  0  0  0
   11.9010   -0.3790   22.1240 C   0  0  0  0  0  0  0  0  0  0  0  0
   10.5910   -0.7670   21.8230 C   0  0  0  0  0  0  0  0  0  0  0  0
    9.5180   -0.2750   22.5790 C   0  0  0  0  0  0  0  0  0  0  0  0
    8.1970   -0.4590   22.1270 N   0  0  0  0  0  0  0  0  0  0  0  0
    7.7810   -0.1250   20.8660 C   0  0  0  0  0  0  0  0  0  0  0  0
    8.5330    0.1890   19.9620 O   0  0  0  0  0  0  0  0  0  0  0  0
    6.4220   -0.1260   20.7230 N   0  0  0  0  0  0  0  0  0  0  0  0
    5.7450    0.4360   19.6150 C   0  0  0  0  0  0  0  0  0  0  0  0
    4.7640    1.4090   19.8400 C   0  0  0  0  0  0  0  0  0  0  0  0
    4.2310    2.0650   18.7230 C   0  0  0  0  0  0  0  0  0  0  0  0
    4.6960    1.7400   17.4410 C   0  0  0  0  0  0  0  0  0  0  0  0
    5.6030    0.7630   17.2100 N   0  0  0  0  0  0  0  0  0  0  0  0
    6.1260    0.1430   18.2870 C   0  0  0  0  0  0  0  0  0  0  0  0
    9.7610    0.5200   23.7080 C   0  0  0  0  0  0  0  0  0  0  0  0
   11.0750    0.8930   24.0270 C   0  0  0  0  0  0  0  0  0  0  0  0
  1  2  1  0
  2  3  2  0
  2  4  1  0
  4  5  1  0
  5  6  1  0
  6 21  2  0
  6  7  1  0
  7  8  2  0
  8  9  1  0
  9 10  1  0
  9 20  2  0
 10 11  1  0
 11 12  2  0
 11 13  1  0
 13 14  1  0
 14 15  2  0
 14 19  1  0
 15 16  1  0
 16 17  2  0
 17 18  1  0
 18 19  2  0
 20 21  1  0
M  END
>  <original SMILES>  (274) 
NC(=O)NCc1ccc(NC(=O)Nc2cccnc2)cc1

>  <AutoDock Predicted Affinity>  (274) 
-6.18852

>  <ref_pdb>  (274) 
x0434_0

>  <ref_mols>  (274) 
x0434_0

>  <creator>  (274) 
Will Poole

>  <energy minimised>  (274) 
True

$$$$
WPC0827_minimised.pdb
     RDKit          3D

 24 25  0  0  0  0  0  0  0  0999 V2000
   12.4200    6.1430   24.8120 N   0  0  0  0  0  0  0  0  0  0  0  0
   11.4620    5.8500   23.8940 C   0  0  0  0  0  0  0  0  0  0  0  0
   10.3710    6.3690   23.9530 O   0  0  0  0  0  0  0  0  0  0  0  0
   11.8310    4.9700   22.8990 N   0  0  0  0  0  0  0  0  0  0  0  0
   12.9600    4.1790   22.9140 N   0  0  0  0  0  0  0  0  0  0  0  0
   12.8730    3.0180   22.3640 C   0  0  0  0  0  0  0  0  0  0  0  0
   13.9720    1.9760   22.4000 C   0  0  0  0  0  0  0  0  0  0  0  0
   13.6360    0.7840   23.3200 C   0  0  0  0  0  0  0  0  0  0  0  0
   12.2240    0.2820   23.1000 C   0  0  0  0  0  0  0  0  0  0  0  0
   11.9510   -0.6440   22.0810 C   0  0  0  0  0  0  0  0  0  0  0  0
   10.6230   -0.9880   21.7960 C   0  0  0  0  0  0  0  0  0  0  0  0
    9.5710   -0.3930   22.5070 C   0  0  0  0  0  0  0  0  0  0  0  0
    8.2450   -0.5360   22.0560 N   0  0  0  0  0  0  0  0  0  0  0  0
    7.8430   -0.1780   20.7980 C   0  0  0  0  0  0  0  0  0  0  0  0
    8.6050    0.1030   19.8920 O   0  0  0  0  0  0  0  0  0  0  0  0
    6.4850   -0.1140   20.6660 N   0  0  0  0  0  0  0  0  0  0  0  0
    5.8210    0.4760   19.5650 C   0  0  0  0  0  0  0  0  0  0  0  0
    4.8530    1.4590   19.8020 C   0  0  0  0  0  0  0  0  0  0  0  0
    4.3250    2.1310   18.6930 C   0  0  0  0  0  0  0  0  0  0  0  0
    4.7870    1.8190   17.4070 C   0  0  0  0  0  0  0  0  0  0  0  0
    5.6820    0.8340   17.1650 N   0  0  0  0  0  0  0  0  0  0  0  0
    6.1950    0.1920   18.2340 C   0  0  0  0  0  0  0  0  0  0  0  0
    9.8430    0.4740   23.5720 C   0  0  0  0  0  0  0  0  0  0  0  0
   11.1700    0.8070   23.8730 C   0  0  0  0  0  0  0  0  0  0  0  0
  1  2  1  0
  2  3  2  0
  2  4  1  0
  4  5  1  0
  5  6  2  0
  6  7  1  0
  7  8  1  0
  8  9  1  0
  9 24  2  0
  9 10  1  0
 10 11  2  0
 11 12  1  0
 12 13  1  0
 12 23  2  0
 13 14  1  0
 14 15  2  0
 14 16  1  0
 16 17  1  0
 17 18  2  0
 17 22  1  0
 18 19  1  0
 19 20  2  0
 20 21  1  0
 21 22  2  0
 23 24  1  0
M  END
>  <original SMILES>  (275) 
NC(=O)NN=CCCc1ccc(NC(=O)Nc2cccnc2)cc1

>  <AutoDock Predicted Affinity>  (275) 
-6.59315

>  <ref_pdb>  (275) 
x0434_0

>  <ref_mols>  (275) 
x0434_0

>  <creator>  (275) 
Will Poole

>  <energy minimised>  (275) 
True

$$$$
WPC1003_minimised.pdb
     RDKit          3D

 23 24  0  0  0  0  0  0  0  0999 V2000
   10.5830    4.9770   23.1790 N   0  0  0  0  0  0  0  0  0  0  0  0
   11.8740    4.6010   23.3650 C   0  0  0  0  0  0  0  0  0  0  0  0
   12.4600    4.8630   24.3940 O   0  0  0  0  0  0  0  0  0  0  0  0
   12.3950    3.9180   22.2890 N   0  0  0  0  0  0  0  0  0  0  0  0
   13.7220    3.6010   22.1370 N   0  0  0  0  0  0  0  0  0  0  0  0
   14.2770    2.4720   22.4290 C   0  0  0  0  0  0  0  0  0  0  0  0
   13.6990    1.2590   23.1480 C   0  0  0  0  0  0  0  0  0  0  0  0
   12.2710    0.8490   22.8560 C   0  0  0  0  0  0  0  0  0  0  0  0
   12.0010   -0.1020   21.8610 C   0  0  0  0  0  0  0  0  0  0  0  0
   10.6800   -0.5060   21.6310 C   0  0  0  0  0  0  0  0  0  0  0  0
    9.6270    0.0560   22.3680 C   0  0  0  0  0  0  0  0  0  0  0  0
    8.2900   -0.1960   22.0000 N   0  0  0  0  0  0  0  0  0  0  0  0
    7.8140    0.0060   20.7350 C   0  0  0  0  0  0  0  0  0  0  0  0
    8.5240    0.2240   19.7720 O   0  0  0  0  0  0  0  0  0  0  0  0
    6.4490    0.0100   20.6550 N   0  0  0  0  0  0  0  0  0  0  0  0
    5.7370    0.5400   19.5540 C   0  0  0  0  0  0  0  0  0  0  0  0
    4.7760    1.5310   19.7850 C   0  0  0  0  0  0  0  0  0  0  0  0
    4.2260    2.1760   18.6710 C   0  0  0  0  0  0  0  0  0  0  0  0
    4.6650    1.8320   17.3850 C   0  0  0  0  0  0  0  0  0  0  0  0
    5.5500    0.8370   17.1490 N   0  0  0  0  0  0  0  0  0  0  0  0
    6.0790    0.2170   18.2220 C   0  0  0  0  0  0  0  0  0  0  0  0
    9.9000    0.9600   23.4030 C   0  0  0  0  0  0  0  0  0  0  0  0
   11.2240    1.3410   23.6580 C   0  0  0  0  0  0  0  0  0  0  0  0
  1  2  1  0
  2  3  2  0
  2  4  1  0
  4  5  1  0
  5  6  2  0
  6  7  1  0
  7  8  1  0
  8 23  2  0
  8  9  1  0
  9 10  2  0
 10 11  1  0
 11 12  1  0
 11 22  2  0
 12 13  1  0
 13 14  2  0
 13 15  1  0
 15 16  1  0
 16 17  2  0
 16 21  1  0
 17 18  1  0
 18 19  2  0
 19 20  1  0
 20 21  2  0
 22 23  1  0
M  END
>  <original SMILES>  (276) 
NC(=O)NN=CCc1ccc(NC(=O)Nc2cccnc2)cc1

>  <AutoDock Predicted Affinity>  (276) 
-6.39599

>  <ref_pdb>  (276) 
x0434_0

>  <ref_mols>  (276) 
x0434_0

>  <creator>  (276) 
Will Poole

>  <energy minimised>  (276) 
True

$$$$
WPC0584_minimised.pdb
     RDKit          3D

 23 24  0  0  0  0  0  0  0  0999 V2000
   10.9350    4.8090   22.8710 N   0  0  0  0  0  0  0  0  0  0  0  0
   12.2100    4.5390   23.2230 C   0  0  0  0  0  0  0  0  0  0  0  0
   12.7540    5.0470   24.1820 O   0  0  0  0  0  0  0  0  0  0  0  0
   12.7140    3.5810   22.4120 O   0  0  0  0  0  0  0  0  0  0  0  0
   14.1140    3.2750   22.5080 C   0  0  0  0  0  0  0  0  0  0  0  0
   14.3750    1.7830   22.1940 C   0  0  0  0  0  0  0  0  0  0  0  0
   13.7680    0.7720   23.1900 C   0  0  0  0  0  0  0  0  0  0  0  0
   12.2970    0.4940   22.9630 C   0  0  0  0  0  0  0  0  0  0  0  0
   11.9070   -0.4450   21.9950 C   0  0  0  0  0  0  0  0  0  0  0  0
   10.5470   -0.6760   21.7570 C   0  0  0  0  0  0  0  0  0  0  0  0
    9.5730    0.0420   22.4660 C   0  0  0  0  0  0  0  0  0  0  0  0
    8.2180   -0.0600   22.0930 N   0  0  0  0  0  0  0  0  0  0  0  0
    7.7620    0.1600   20.8210 C   0  0  0  0  0  0  0  0  0  0  0  0
    8.4840    0.3380   19.8590 O   0  0  0  0  0  0  0  0  0  0  0  0
    6.3990    0.2030   20.7310 N   0  0  0  0  0  0  0  0  0  0  0  0
    5.6920    0.6850   19.6060 C   0  0  0  0  0  0  0  0  0  0  0  0
    4.7110    1.6660   19.7960 C   0  0  0  0  0  0  0  0  0  0  0  0
    4.1430    2.2450   18.6550 C   0  0  0  0  0  0  0  0  0  0  0  0
    4.5790    1.8430   17.3840 C   0  0  0  0  0  0  0  0  0  0  0  0
    5.4820    0.8550   17.1900 N   0  0  0  0  0  0  0  0  0  0  0  0
    6.0360    0.3050   18.2890 C   0  0  0  0  0  0  0  0  0  0  0  0
    9.9570    0.9430   23.4690 C   0  0  0  0  0  0  0  0  0  0  0  0
   11.3190    1.1630   23.7220 C   0  0  0  0  0  0  0  0  0  0  0  0
  1  2  1  0
  2  3  2  0
  2  4  1  0
  4  5  1  0
  5  6  1  0
  6  7  1  0
  7  8  1  0
  8 23  2  0
  8  9  1  0
  9 10  2  0
 10 11  1  0
 11 12  1  0
 11 22  2  0
 12 13  1  0
 13 14  2  0
 13 15  1  0
 15 16  1  0
 16 17  2  0
 16 21  1  0
 17 18  1  0
 18 19  2  0
 19 20  1  0
 20 21  2  0
 22 23  1  0
M  END
>  <original SMILES>  (277) 
NC(=O)OCCCc1ccc(NC(=O)Nc2cccnc2)cc1

>  <AutoDock Predicted Affinity>  (277) 
-6.0225

>  <ref_pdb>  (277) 
x0434_0

>  <ref_mols>  (277) 
x0434_0

>  <creator>  (277) 
Will Poole

>  <energy minimised>  (277) 
True

$$$$
WPC0878_minimised.pdb
     RDKit          3D

 22 23  0  0  0  0  0  0  0  0999 V2000
   13.9190    5.0710   22.5100 N   0  0  0  0  0  0  0  0  0  0  0  0
   12.9280    4.7240   23.3760 C   0  0  0  0  0  0  0  0  0  0  0  0
   12.4720    5.5440   24.1420 O   0  0  0  0  0  0  0  0  0  0  0  0
   12.7590    3.3780   23.5320 O   0  0  0  0  0  0  0  0  0  0  0  0
   13.4500    2.3770   22.7560 C   0  0  0  0  0  0  0  0  0  0  0  0
   13.2560    0.9910   23.4020 C   0  0  0  0  0  0  0  0  0  0  0  0
   11.8600    0.4570   23.1610 C   0  0  0  0  0  0  0  0  0  0  0  0
   11.6390   -0.5200   22.1760 C   0  0  0  0  0  0  0  0  0  0  0  0
   10.3290   -0.8980   21.8550 C   0  0  0  0  0  0  0  0  0  0  0  0
    9.2430   -0.2890   22.5000 C   0  0  0  0  0  0  0  0  0  0  0  0
    7.9390   -0.4630   22.0020 N   0  0  0  0  0  0  0  0  0  0  0  0
    7.5870   -0.1760   20.7120 C   0  0  0  0  0  0  0  0  0  0  0  0
    8.3790    0.0030   19.8040 O   0  0  0  0  0  0  0  0  0  0  0  0
    6.2360   -0.0480   20.5540 N   0  0  0  0  0  0  0  0  0  0  0  0
    5.6140    0.5620   19.4410 C   0  0  0  0  0  0  0  0  0  0  0  0
    4.6500    1.5510   19.6650 C   0  0  0  0  0  0  0  0  0  0  0  0
    4.1560    2.2410   18.5520 C   0  0  0  0  0  0  0  0  0  0  0  0
    4.6500    1.9390   17.2750 C   0  0  0  0  0  0  0  0  0  0  0  0
    5.5440    0.9510   17.0450 N   0  0  0  0  0  0  0  0  0  0  0  0
    6.0210    0.2900   18.1170 C   0  0  0  0  0  0  0  0  0  0  0  0
    9.4630    0.6250   23.5390 C   0  0  0  0  0  0  0  0  0  0  0  0
   10.7730    0.9930   23.8750 C   0  0  0  0  0  0  0  0  0  0  0  0
  1  2  1  0
  2  3  2  0
  2  4  1  0
  4  5  1  0
  5  6  1  0
  6  7  1  0
  7 22  2  0
  7  8  1  0
  8  9  2  0
  9 10  1  0
 10 11  1  0
 10 21  2  0
 11 12  1  0
 12 13  2  0
 12 14  1  0
 14 15  1  0
 15 16  2  0
 15 20  1  0
 16 17  1  0
 17 18  2  0
 18 19  1  0
 19 20  2  0
 21 22  1  0
M  END
>  <original SMILES>  (278) 
NC(=O)OCCc1ccc(NC(=O)Nc2cccnc2)cc1

>  <AutoDock Predicted Affinity>  (278) 
-6.11047

>  <ref_pdb>  (278) 
x0434_0

>  <ref_mols>  (278) 
x0434_0

>  <creator>  (278) 
Will Poole

>  <energy minimised>  (278) 
True

$$$$
WPC0680_minimised.pdb
     RDKit          3D

 21 22  0  0  0  0  0  0  0  0999 V2000
   12.2400    4.2120   22.4380 N   0  0  0  0  0  0  0  0  0  0  0  0
   12.2010    3.3400   23.4660 C   0  0  0  0  0  0  0  0  0  0  0  0
   11.4890    3.4800   24.4370 O   0  0  0  0  0  0  0  0  0  0  0  0
   13.0440    2.3170   23.1930 O   0  0  0  0  0  0  0  0  0  0  0  0
   12.9310    1.0710   23.8950 C   0  0  0  0  0  0  0  0  0  0  0  0
   11.6300    0.4110   23.4970 C   0  0  0  0  0  0  0  0  0  0  0  0
   11.5550   -0.3140   22.2990 C   0  0  0  0  0  0  0  0  0  0  0  0
   10.3110   -0.7560   21.8360 C   0  0  0  0  0  0  0  0  0  0  0  0
    9.1420   -0.4420   22.5450 C   0  0  0  0  0  0  0  0  0  0  0  0
    7.8750   -0.6070   21.9550 N   0  0  0  0  0  0  0  0  0  0  0  0
    7.5670   -0.1950   20.6860 C   0  0  0  0  0  0  0  0  0  0  0  0
    8.3780    0.0740   19.8190 O   0  0  0  0  0  0  0  0  0  0  0  0
    6.2210   -0.0540   20.5010 N   0  0  0  0  0  0  0  0  0  0  0  0
    5.6270    0.5900   19.3920 C   0  0  0  0  0  0  0  0  0  0  0  0
    4.6680    1.5860   19.6130 C   0  0  0  0  0  0  0  0  0  0  0  0
    4.1990    2.2930   18.5000 C   0  0  0  0  0  0  0  0  0  0  0  0
    4.7100    2.0020   17.2270 C   0  0  0  0  0  0  0  0  0  0  0  0
    5.6050    1.0130   17.0010 N   0  0  0  0  0  0  0  0  0  0  0  0
    6.0570    0.3350   18.0730 C   0  0  0  0  0  0  0  0  0  0  0  0
    9.2270    0.1960   23.7900 C   0  0  0  0  0  0  0  0  0  0  0  0
   10.4740    0.6130   24.2740 C   0  0  0  0  0  0  0  0  0  0  0  0
  1  2  1  0
  2  3  2  0
  2  4  1  0
  4  5  1  0
  5  6  1  0
  6 21  2  0
  6  7  1  0
  7  8  2  0
  8  9  1  0
  9 10  1  0
  9 20  2  0
 10 11  1  0
 11 12  2  0
 11 13  1  0
 13 14  1  0
 14 15  2  0
 14 19  1  0
 15 16  1  0
 16 17  2  0
 17 18  1  0
 18 19  2  0
 20 21  1  0
M  END
>  <original SMILES>  (279) 
NC(=O)OCc1ccc(NC(=O)Nc2cccnc2)cc1

>  <AutoDock Predicted Affinity>  (279) 
-5.57648

>  <ref_pdb>  (279) 
x0434_0

>  <ref_mols>  (279) 
x0434_0

>  <creator>  (279) 
Will Poole

>  <energy minimised>  (279) 
True

$$$$
WPC0663_minimised.pdb
     RDKit          3D

 22 23  0  0  0  0  0  0  0  0999 V2000
   13.7650    4.8650   23.2370 N   0  0  0  0  0  0  0  0  0  0  0  0
   12.5150    4.5270   23.6510 C   0  0  0  0  0  0  0  0  0  0  0  0
   11.5070    5.6440   24.3370 S   0  0  0  0  0  0  0  0  0  0  0  0
   12.2220    3.1870   23.6350 N   0  0  0  0  0  0  0  0  0  0  0  0
   13.0770    2.1030   23.1140 C   0  0  0  0  0  0  0  0  0  0  0  0
   12.8840    0.7460   23.8110 C   0  0  0  0  0  0  0  0  0  0  0  0
   11.5160    0.1870   23.4990 C   0  0  0  0  0  0  0  0  0  0  0  0
   11.3500   -0.6130   22.3580 C   0  0  0  0  0  0  0  0  0  0  0  0
   10.0620   -0.9470   21.9280 C   0  0  0  0  0  0  0  0  0  0  0  0
    8.9430   -0.4570   22.6170 C   0  0  0  0  0  0  0  0  0  0  0  0
    7.6660   -0.5300   22.0300 N   0  0  0  0  0  0  0  0  0  0  0  0
    7.3990   -0.1420   20.7440 C   0  0  0  0  0  0  0  0  0  0  0  0
    8.2400    0.0720   19.8890 O   0  0  0  0  0  0  0  0  0  0  0  0
    6.0630    0.0280   20.5240 N   0  0  0  0  0  0  0  0  0  0  0  0
    5.5020    0.6550   19.3890 C   0  0  0  0  0  0  0  0  0  0  0  0
    4.5340    1.6490   19.5720 C   0  0  0  0  0  0  0  0  0  0  0  0
    4.0920    2.3410   18.4380 C   0  0  0  0  0  0  0  0  0  0  0  0
    4.6380    2.0360   17.1840 C   0  0  0  0  0  0  0  0  0  0  0  0
    5.5400    1.0460   16.9920 N   0  0  0  0  0  0  0  0  0  0  0  0
    5.9670    0.3830   18.0840 C   0  0  0  0  0  0  0  0  0  0  0  0
    9.1090    0.2550   23.8150 C   0  0  0  0  0  0  0  0  0  0  0  0
   10.4000    0.5680   24.2660 C   0  0  0  0  0  0  0  0  0  0  0  0
  1  2  1  0
  2  3  2  0
  2  4  1  0
  4  5  1  0
  5  6  1  0
  6  7  1  0
  7 22  2  0
  7  8  1  0
  8  9  2  0
  9 10  1  0
 10 11  1  0
 10 21  2  0
 11 12  1  0
 12 13  2  0
 12 14  1  0
 14 15  1  0
 15 16  2  0
 15 20  1  0
 16 17  1  0
 17 18  2  0
 18 19  1  0
 19 20  2  0
 21 22  1  0
M  END
>  <original SMILES>  (280) 
NC(=S)NCCc1ccc(NC(=O)Nc2cccnc2)cc1

>  <AutoDock Predicted Affinity>  (280) 
-5.83345

>  <ref_pdb>  (280) 
x0434_0

>  <ref_mols>  (280) 
x0434_0

>  <creator>  (280) 
Will Poole

>  <energy minimised>  (280) 
True

$$$$
WPC0844_minimised.pdb
     RDKit          3D

 21 22  0  0  0  0  0  0  0  0999 V2000
   13.9610    5.1090   22.5100 N   0  0  0  0  0  0  0  0  0  0  0  0
   13.0200    4.5800   23.3290 C   0  0  0  0  0  0  0  0  0  0  0  0
   12.4070    5.4760   24.5790 S   0  0  0  0  0  0  0  0  0  0  0  0
   12.8540    3.2360   23.1310 N   0  0  0  0  0  0  0  0  0  0  0  0
   12.2220    2.3200   24.0870 C   0  0  0  0  0  0  0  0  0  0  0  0
   11.0920    1.5070   23.5100 C   0  0  0  0  0  0  0  0  0  0  0  0
   11.3220    0.5500   22.5060 C   0  0  0  0  0  0  0  0  0  0  0  0
   10.2410   -0.1630   21.9640 C   0  0  0  0  0  0  0  0  0  0  0  0
    8.9400    0.0810   22.4340 C   0  0  0  0  0  0  0  0  0  0  0  0
    7.8140   -0.4600   21.7930 N   0  0  0  0  0  0  0  0  0  0  0  0
    7.5430   -0.2310   20.4760 C   0  0  0  0  0  0  0  0  0  0  0  0
    8.3770   -0.0130   19.6170 O   0  0  0  0  0  0  0  0  0  0  0  0
    6.1980   -0.1570   20.2520 N   0  0  0  0  0  0  0  0  0  0  0  0
    5.6160    0.5310   19.1670 C   0  0  0  0  0  0  0  0  0  0  0  0
    4.6560    1.5170   19.4260 C   0  0  0  0  0  0  0  0  0  0  0  0
    4.2010    2.2830   18.3460 C   0  0  0  0  0  0  0  0  0  0  0  0
    4.7390    2.0660   17.0700 C   0  0  0  0  0  0  0  0  0  0  0  0
    5.6430    1.0950   16.8090 N   0  0  0  0  0  0  0  0  0  0  0  0
    6.0730    0.3520   17.8470 C   0  0  0  0  0  0  0  0  0  0  0  0
    8.7210    0.9920   23.4750 C   0  0  0  0  0  0  0  0  0  0  0  0
    9.7980    1.7030   24.0160 C   0  0  0  0  0  0  0  0  0  0  0  0
  1  2  1  0
  2  3  2  0
  2  4  1  0
  4  5  1  0
  5  6  1  0
  6 21  2  0
  6  7  1  0
  7  8  2  0
  8  9  1  0
  9 10  1  0
  9 20  2  0
 10 11  1  0
 11 12  2  0
 11 13  1  0
 13 14  1  0
 14 15  2  0
 14 19  1  0
 15 16  1  0
 16 17  2  0
 17 18  1  0
 18 19  2  0
 20 21  1  0
M  END
>  <original SMILES>  (281) 
NC(=S)NCc1ccc(NC(=O)Nc2cccnc2)cc1

>  <AutoDock Predicted Affinity>  (281) 
-5.58762

>  <ref_pdb>  (281) 
x0434_0

>  <ref_mols>  (281) 
x0434_0

>  <creator>  (281) 
Will Poole

>  <energy minimised>  (281) 
True

$$$$
WPC0609_minimised.pdb
     RDKit          3D

 24 25  0  0  0  0  0  0  0  0999 V2000
   12.6430    5.9270   24.5730 N   0  0  0  0  0  0  0  0  0  0  0  0
   11.7020    5.5710   23.6540 C   0  0  0  0  0  0  0  0  0  0  0  0
   10.1530    6.1400   23.7450 S   0  0  0  0  0  0  0  0  0  0  0  0
   12.1560    4.8040   22.6060 N   0  0  0  0  0  0  0  0  0  0  0  0
   13.2910    4.0270   22.6440 N   0  0  0  0  0  0  0  0  0  0  0  0
   13.1650    2.8290   22.1910 C   0  0  0  0  0  0  0  0  0  0  0  0
   14.2270    1.7550   22.2790 C   0  0  0  0  0  0  0  0  0  0  0  0
   13.8290    0.6310   23.2580 C   0  0  0  0  0  0  0  0  0  0  0  0
   12.3920    0.1900   23.0580 C   0  0  0  0  0  0  0  0  0  0  0  0
   12.0680   -0.7510   22.0670 C   0  0  0  0  0  0  0  0  0  0  0  0
   10.7230   -1.0440   21.8050 C   0  0  0  0  0  0  0  0  0  0  0  0
    9.7040   -0.3860   22.5100 C   0  0  0  0  0  0  0  0  0  0  0  0
    8.3670   -0.4950   22.0830 N   0  0  0  0  0  0  0  0  0  0  0  0
    7.9530   -0.1330   20.8310 C   0  0  0  0  0  0  0  0  0  0  0  0
    8.7070    0.1410   19.9170 O   0  0  0  0  0  0  0  0  0  0  0  0
    6.5940   -0.0620   20.7100 N   0  0  0  0  0  0  0  0  0  0  0  0
    5.9190    0.5090   19.6060 C   0  0  0  0  0  0  0  0  0  0  0  0
    4.9480    1.4910   19.8360 C   0  0  0  0  0  0  0  0  0  0  0  0
    4.4030    2.1390   18.7210 C   0  0  0  0  0  0  0  0  0  0  0  0
    4.8520    1.8070   17.4350 C   0  0  0  0  0  0  0  0  0  0  0  0
    5.7490    0.8230   17.2020 N   0  0  0  0  0  0  0  0  0  0  0  0
    6.2800    0.2040   18.2760 C   0  0  0  0  0  0  0  0  0  0  0  0
   10.0250    0.5040   23.5410 C   0  0  0  0  0  0  0  0  0  0  0  0
   11.3690    0.7870   23.8180 C   0  0  0  0  0  0  0  0  0  0  0  0
  1  2  1  0
  2  3  2  0
  2  4  1  0
  4  5  1  0
  5  6  2  0
  6  7  1  0
  7  8  1  0
  8  9  1  0
  9 24  2  0
  9 10  1  0
 10 11  2  0
 11 12  1  0
 12 13  1  0
 12 23  2  0
 13 14  1  0
 14 15  2  0
 14 16  1  0
 16 17  1  0
 17 18  2  0
 17 22  1  0
 18 19  1  0
 19 20  2  0
 20 21  1  0
 21 22  2  0
 23 24  1  0
M  END
>  <original SMILES>  (282) 
NC(=S)NN=CCCc1ccc(NC(=O)Nc2cccnc2)cc1

>  <AutoDock Predicted Affinity>  (282) 
-6.420975

>  <ref_pdb>  (282) 
x0434_0

>  <ref_mols>  (282) 
x0434_0

>  <creator>  (282) 
Will Poole

>  <energy minimised>  (282) 
True

$$$$
WPC0696_minimised.pdb
     RDKit          3D

 24 25  0  0  0  0  0  0  0  0999 V2000
    9.8860    5.8940   22.8740 N   0  0  0  0  0  0  0  0  0  0  0  0
   11.1180    5.5320   23.3380 C   0  0  0  0  0  0  0  0  0  0  0  0
   11.7350    6.1560   24.7500 S   0  0  0  0  0  0  0  0  0  0  0  0
   11.7630    4.6980   22.4530 N   0  0  0  0  0  0  0  0  0  0  0  0
   12.9790    4.0980   22.6530 N   0  0  0  0  0  0  0  0  0  0  0  0
   13.1100    2.8970   22.2150 C   0  0  0  0  0  0  0  0  0  0  0  0
   14.3890    2.0980   22.2890 C   0  0  0  0  0  0  0  0  0  0  0  0
   14.1010    0.6450   23.3880 S   0  0  0  0  0  0  0  0  0  0  0  0
   12.3950    0.2330   23.1270 C   0  0  0  0  0  0  0  0  0  0  0  0
   12.0370   -0.6620   22.1090 C   0  0  0  0  0  0  0  0  0  0  0  0
   10.6810   -0.8970   21.8440 C   0  0  0  0  0  0  0  0  0  0  0  0
    9.6900   -0.2270   22.5790 C   0  0  0  0  0  0  0  0  0  0  0  0
    8.3430   -0.3050   22.1740 N   0  0  0  0  0  0  0  0  0  0  0  0
    7.9090    0.0580   20.9280 C   0  0  0  0  0  0  0  0  0  0  0  0
    8.6520    0.3780   20.0200 O   0  0  0  0  0  0  0  0  0  0  0  0
    6.5480    0.0630   20.8010 N   0  0  0  0  0  0  0  0  0  0  0  0
    5.8590    0.5790   19.6790 C   0  0  0  0  0  0  0  0  0  0  0  0
    4.8710    1.5500   19.8760 C   0  0  0  0  0  0  0  0  0  0  0  0
    4.3200    2.1530   18.7390 C   0  0  0  0  0  0  0  0  0  0  0  0
    4.7730    1.7780   17.4660 C   0  0  0  0  0  0  0  0  0  0  0  0
    5.6860    0.8010   17.2650 N   0  0  0  0  0  0  0  0  0  0  0  0
    6.2270    0.2320   18.3610 C   0  0  0  0  0  0  0  0  0  0  0  0
   10.0480    0.6240   23.6320 C   0  0  0  0  0  0  0  0  0  0  0  0
   11.4040    0.8510   23.9060 C   0  0  0  0  0  0  0  0  0  0  0  0
  1  2  1  0
  2  3  2  0
  2  4  1  0
  4  5  1  0
  5  6  2  0
  6  7  1  0
  7  8  1  0
  8  9  1  0
  9 24  2  0
  9 10  1  0
 10 11  2  0
 11 12  1  0
 12 13  1  0
 12 23  2  0
 13 14  1  0
 14 15  2  0
 14 16  1  0
 16 17  1  0
 17 18  2  0
 17 22  1  0
 18 19  1  0
 19 20  2  0
 20 21  1  0
 21 22  2  0
 23 24  1  0
M  END
>  <original SMILES>  (283) 
NC(=S)NN=CCSc1ccc(NC(=O)Nc2cccnc2)cc1

>  <AutoDock Predicted Affinity>  (283) 
-5.7143

>  <ref_pdb>  (283) 
x0434_0

>  <ref_mols>  (283) 
x0434_0

>  <creator>  (283) 
Will Poole

>  <energy minimised>  (283) 
True

$$$$
WPC0927_minimised.pdb
     RDKit          3D

 23 24  0  0  0  0  0  0  0  0999 V2000
   12.8630    5.7930   24.3140 N   0  0  0  0  0  0  0  0  0  0  0  0
   11.8550    5.1830   23.6340 C   0  0  0  0  0  0  0  0  0  0  0  0
   10.2840    5.4580   24.0740 S   0  0  0  0  0  0  0  0  0  0  0  0
   12.2540    4.3850   22.5810 N   0  0  0  0  0  0  0  0  0  0  0  0
   13.5640    4.1260   22.2440 N   0  0  0  0  0  0  0  0  0  0  0  0
   14.1570    2.9810   22.3660 C   0  0  0  0  0  0  0  0  0  0  0  0
   13.6750    1.6930   23.0270 C   0  0  0  0  0  0  0  0  0  0  0  0
   12.2670    1.2000   22.7600 C   0  0  0  0  0  0  0  0  0  0  0  0
   12.0480    0.1750   21.8260 C   0  0  0  0  0  0  0  0  0  0  0  0
   10.7500   -0.3100   21.6150 C   0  0  0  0  0  0  0  0  0  0  0  0
    9.6650    0.2420   22.3130 C   0  0  0  0  0  0  0  0  0  0  0  0
    8.3410   -0.0900   21.9620 N   0  0  0  0  0  0  0  0  0  0  0  0
    7.8560    0.0070   20.6870 C   0  0  0  0  0  0  0  0  0  0  0  0
    8.5580    0.1220   19.7020 O   0  0  0  0  0  0  0  0  0  0  0  0
    6.4910    0.0420   20.6230 N   0  0  0  0  0  0  0  0  0  0  0  0
    5.7740    0.5650   19.5200 C   0  0  0  0  0  0  0  0  0  0  0  0
    4.8250    1.5670   19.7510 C   0  0  0  0  0  0  0  0  0  0  0  0
    4.2670    2.2050   18.6370 C   0  0  0  0  0  0  0  0  0  0  0  0
    4.6910    1.8480   17.3500 C   0  0  0  0  0  0  0  0  0  0  0  0
    5.5620    0.8410   17.1150 N   0  0  0  0  0  0  0  0  0  0  0  0
    6.0970    0.2240   18.1880 C   0  0  0  0  0  0  0  0  0  0  0  0
    9.8900    1.2160   23.2940 C   0  0  0  0  0  0  0  0  0  0  0  0
   11.1920    1.6740   23.5340 C   0  0  0  0  0  0  0  0  0  0  0  0
  1  2  1  0
  2  3  2  0
  2  4  1  0
  4  5  1  0
  5  6  2  0
  6  7  1  0
  7  8  1  0
  8 23  2  0
  8  9  1  0
  9 10  2  0
 10 11  1  0
 11 12  1  0
 11 22  2  0
 12 13  1  0
 13 14  2  0
 13 15  1  0
 15 16  1  0
 16 17  2  0
 16 21  1  0
 17 18  1  0
 18 19  2  0
 19 20  1  0
 20 21  2  0
 22 23  1  0
M  END
>  <original SMILES>  (284) 
NC(=S)NN=CCc1ccc(NC(=O)Nc2cccnc2)cc1

>  <AutoDock Predicted Affinity>  (284) 
-5.801

>  <ref_pdb>  (284) 
x0434_0

>  <ref_mols>  (284) 
x0434_0

>  <creator>  (284) 
Will Poole

>  <energy minimised>  (284) 
True

$$$$
WPC0525_minimised.pdb
     RDKit          3D

 21 22  0  0  1  0  0  0  0  0999 V2000
   13.9520   -1.9800   23.4410 N   0  0  0  0  0  0  0  0  0  0  0  0
   13.1740   -0.8220   23.9470 C   0  0  1  0  0  0  0  0  0  0  0  0
   13.7250    0.5510   23.4780 C   0  0  0  0  0  0  0  0  0  0  0  0
   14.8360    0.7000   23.0150 O   0  0  0  0  0  0  0  0  0  0  0  0
   12.8360    1.5630   23.4940 O   0  0  0  0  0  0  0  0  0  0  0  0
   11.7010   -0.9170   23.5660 C   0  0  0  0  0  0  0  0  0  0  0  0
   11.3390   -1.3310   22.2750 C   0  0  0  0  0  0  0  0  0  0  0  0
   10.0120   -1.2180   21.8490 C   0  0  0  0  0  0  0  0  0  0  0  0
    9.0420   -0.6550   22.6900 C   0  0  0  0  0  0  0  0  0  0  0  0
    7.7520   -0.3770   22.1910 N   0  0  0  0  0  0  0  0  0  0  0  0
    7.4740    0.1350   20.9500 C   0  0  0  0  0  0  0  0  0  0  0  0
    8.3050    0.3880   20.0970 O   0  0  0  0  0  0  0  0  0  0  0  0
    6.1360    0.3250   20.7500 N   0  0  0  0  0  0  0  0  0  0  0  0
    5.5430    0.8600   19.5830 C   0  0  0  0  0  0  0  0  0  0  0  0
    4.5410    1.8280   19.7130 C   0  0  0  0  0  0  0  0  0  0  0  0
    4.0450    2.4090   18.5410 C   0  0  0  0  0  0  0  0  0  0  0  0
    4.5670    2.0210   17.2990 C   0  0  0  0  0  0  0  0  0  0  0  0
    5.4940    1.0460   17.1580 N   0  0  0  0  0  0  0  0  0  0  0  0
    5.9820    0.4970   18.2890 C   0  0  0  0  0  0  0  0  0  0  0  0
    9.3810   -0.3090   24.0060 C   0  0  0  0  0  0  0  0  0  0  0  0
   10.7070   -0.4490   24.4500 C   0  0  0  0  0  0  0  0  0  0  0  0
  2  1  1  6
  2  3  1  0
  2  6  1  0
  3  4  2  0
  3  5  1  0
  6 21  2  0
  6  7  1  0
  7  8  2  0
  8  9  1  0
  9 10  1  0
  9 20  2  0
 10 11  1  0
 11 12  2  0
 11 13  1  0
 13 14  1  0
 14 15  2  0
 14 19  1  0
 15 16  1  0
 16 17  2  0
 17 18  1  0
 18 19  2  0
 20 21  1  0
M  END
>  <original SMILES>  (285) 
NC(C(=O)O)c1ccc(NC(=O)Nc2cccnc2)cc1

>  <AutoDock Predicted Affinity>  (285) 
-5.96238

>  <ref_pdb>  (285) 
x0434_0

>  <ref_mols>  (285) 
x0434_0

>  <creator>  (285) 
Will Poole

>  <energy minimised>  (285) 
True

$$$$
WPC0485_minimised.pdb
     RDKit          3D

 24 25  0  0  1  0  0  0  0  0999 V2000
   14.0070    6.0990   22.2780 N   0  0  0  0  0  0  0  0  0  0  0  0
   12.8950    5.3000   22.8790 C   0  0  1  0  0  0  0  0  0  0  0  0
   13.4760    3.9820   23.4060 C   0  0  0  0  0  0  0  0  0  0  0  0
   13.9270    2.9700   22.3470 C   0  0  0  0  0  0  0  0  0  0  0  0
   14.1690    1.2970   23.0900 S   0  0  0  0  0  0  0  0  0  0  0  0
   12.5320    0.6200   22.9860 C   0  0  0  0  0  0  0  0  0  0  0  0
   12.2370   -0.2430   21.9240 C   0  0  0  0  0  0  0  0  0  0  0  0
   10.9150   -0.6560   21.7140 C   0  0  0  0  0  0  0  0  0  0  0  0
    9.8840   -0.1840   22.5420 C   0  0  0  0  0  0  0  0  0  0  0  0
    8.5350   -0.3750   22.1680 N   0  0  0  0  0  0  0  0  0  0  0  0
    8.0430   -0.0610   20.9270 C   0  0  0  0  0  0  0  0  0  0  0  0
    8.7400    0.2470   19.9800 O   0  0  0  0  0  0  0  0  0  0  0  0
    6.6780   -0.0750   20.8400 N   0  0  0  0  0  0  0  0  0  0  0  0
    5.9570    0.4420   19.7350 C   0  0  0  0  0  0  0  0  0  0  0  0
    4.9910    1.4310   19.9560 C   0  0  0  0  0  0  0  0  0  0  0  0
    4.4170    2.0420   18.8340 C   0  0  0  0  0  0  0  0  0  0  0  0
    4.8310    1.6620   17.5490 C   0  0  0  0  0  0  0  0  0  0  0  0
    5.7210    0.6700   17.3230 N   0  0  0  0  0  0  0  0  0  0  0  0
    6.2820    0.0910   18.4050 C   0  0  0  0  0  0  0  0  0  0  0  0
   10.1950    0.6050   23.6610 C   0  0  0  0  0  0  0  0  0  0  0  0
   11.5230    0.9980   23.8890 C   0  0  0  0  0  0  0  0  0  0  0  0
   12.1490    6.0180   24.0360 C   0  0  0  0  0  0  0  0  0  0  0  0
   11.1510    5.6180   24.6020 O   0  0  0  0  0  0  0  0  0  0  0  0
   12.8400    7.0770   24.4710 O   0  0  0  0  0  0  0  0  0  0  0  0
  2  1  1  1
  2 22  1  0
  2  3  1  0
  3  4  1  0
  4  5  1  0
  5  6  1  0
  6 21  2  0
  6  7  1  0
  7  8  2  0
  8  9  1  0
  9 10  1  0
  9 20  2  0
 10 11  1  0
 11 12  2  0
 11 13  1  0
 13 14  1  0
 14 15  2  0
 14 19  1  0
 15 16  1  0
 16 17  2  0
 17 18  1  0
 18 19  2  0
 20 21  1  0
 22 23  2  0
 22 24  1  0
M  END
>  <original SMILES>  (286) 
NC(CCSc1ccc(NC(=O)Nc2cccnc2)cc1)C(=O)O

>  <AutoDock Predicted Affinity>  (286) 
-5.85971

>  <ref_pdb>  (286) 
x0434_0

>  <ref_mols>  (286) 
x0434_0

>  <creator>  (286) 
Will Poole

>  <energy minimised>  (286) 
True

$$$$
WPC0749_minimised.pdb
     RDKit          3D

 20 21  0  0  1  0  0  0  0  0999 V2000
   14.1340   -2.0310   23.6120 N   0  0  0  0  0  0  0  0  0  0  0  0
   13.3870   -0.8060   23.9220 C   0  0  1  0  0  0  0  0  0  0  0  0
   13.9600    0.4060   23.1490 C   0  0  0  0  0  0  0  0  0  0  0  0
   13.1980    1.5800   23.4310 O   0  0  0  0  0  0  0  0  0  0  0  0
   11.9110   -0.9400   23.5790 C   0  0  0  0  0  0  0  0  0  0  0  0
   11.5240   -1.4670   22.3360 C   0  0  0  0  0  0  0  0  0  0  0  0
   10.1890   -1.3960   21.9280 C   0  0  0  0  0  0  0  0  0  0  0  0
    9.2330   -0.7710   22.7410 C   0  0  0  0  0  0  0  0  0  0  0  0
    7.9390   -0.5280   22.2380 N   0  0  0  0  0  0  0  0  0  0  0  0
    7.6670   -0.0160   20.9970 C   0  0  0  0  0  0  0  0  0  0  0  0
    8.5040    0.2590   20.1580 O   0  0  0  0  0  0  0  0  0  0  0  0
    6.3290    0.1600   20.7870 N   0  0  0  0  0  0  0  0  0  0  0  0
    5.7440    0.7200   19.6280 C   0  0  0  0  0  0  0  0  0  0  0  0
    4.7500    1.6940   19.7710 C   0  0  0  0  0  0  0  0  0  0  0  0
    4.2690    2.3040   18.6070 C   0  0  0  0  0  0  0  0  0  0  0  0
    4.7970    1.9380   17.3610 C   0  0  0  0  0  0  0  0  0  0  0  0
    5.7180    0.9580   17.2080 N   0  0  0  0  0  0  0  0  0  0  0  0
    6.1900    0.3810   18.3320 C   0  0  0  0  0  0  0  0  0  0  0  0
    9.5950   -0.3100   24.0150 C   0  0  0  0  0  0  0  0  0  0  0  0
   10.9310   -0.4010   24.4360 C   0  0  0  0  0  0  0  0  0  0  0  0
  2  1  1  6
  2  3  1  0
  2  5  1  0
  3  4  1  0
  5 20  2  0
  5  6  1  0
  6  7  2  0
  7  8  1  0
  8  9  1  0
  8 19  2  0
  9 10  1  0
 10 11  2  0
 10 12  1  0
 12 13  1  0
 13 14  2  0
 13 18  1  0
 14 15  1  0
 15 16  2  0
 16 17  1  0
 17 18  2  0
 19 20  1  0
M  END
>  <original SMILES>  (287) 
NC(CO)c1ccc(NC(=O)Nc2cccnc2)cc1

>  <AutoDock Predicted Affinity>  (287) 
-6.149843

>  <ref_pdb>  (287) 
x0434_0

>  <ref_mols>  (287) 
x0434_0

>  <creator>  (287) 
Will Poole

>  <energy minimised>  (287) 
True

$$$$
WPC0471_minimised.pdb
     RDKit          3D

 20 21  0  0  1  0  0  0  0  0999 V2000
   14.6480    1.0980   22.5380 N   0  0  0  0  0  0  0  0  0  0  0  0
   13.4990    1.8230   23.0860 C   0  0  1  0  0  0  0  0  0  0  0  0
   13.5690    3.2910   22.5890 C   0  0  0  0  0  0  0  0  0  0  0  0
   12.3180    4.4880   23.2450 S   0  0  0  0  0  0  0  0  0  0  0  0
   12.1640    1.1350   22.8340 C   0  0  0  0  0  0  0  0  0  0  0  0
   12.0110    0.1290   21.8610 C   0  0  0  0  0  0  0  0  0  0  0  0
   10.7500   -0.4380   21.6320 C   0  0  0  0  0  0  0  0  0  0  0  0
    9.6320    0.0060   22.3510 C   0  0  0  0  0  0  0  0  0  0  0  0
    8.3300   -0.3610   21.9570 N   0  0  0  0  0  0  0  0  0  0  0  0
    7.8550   -0.1660   20.6880 C   0  0  0  0  0  0  0  0  0  0  0  0
    8.5630    0.0430   19.7220 O   0  0  0  0  0  0  0  0  0  0  0  0
    6.4900   -0.1390   20.6140 N   0  0  0  0  0  0  0  0  0  0  0  0
    5.7830    0.4350   19.5300 C   0  0  0  0  0  0  0  0  0  0  0  0
    4.8480    1.4440   19.7890 C   0  0  0  0  0  0  0  0  0  0  0  0
    4.3000    2.1220   18.6930 C   0  0  0  0  0  0  0  0  0  0  0  0
    4.7180    1.7940   17.3960 C   0  0  0  0  0  0  0  0  0  0  0  0
    5.5810    0.7860   17.1340 N   0  0  0  0  0  0  0  0  0  0  0  0
    6.1080    0.1340   18.1890 C   0  0  0  0  0  0  0  0  0  0  0  0
    9.7930    0.9390   23.3820 C   0  0  0  0  0  0  0  0  0  0  0  0
   11.0580    1.4870   23.6330 C   0  0  0  0  0  0  0  0  0  0  0  0
  2  1  1  6
  2  3  1  0
  2  5  1  0
  3  4  1  0
  5 20  2  0
  5  6  1  0
  6  7  2  0
  7  8  1  0
  8  9  1  0
  8 19  2  0
  9 10  1  0
 10 11  2  0
 10 12  1  0
 12 13  1  0
 13 14  2  0
 13 18  1  0
 14 15  1  0
 15 16  2  0
 16 17  1  0
 17 18  2  0
 19 20  1  0
M  END
>  <original SMILES>  (288) 
NC(CS)c1ccc(NC(=O)Nc2cccnc2)cc1

>  <AutoDock Predicted Affinity>  (288) 
-5.96764

>  <ref_pdb>  (288) 
x0434_0

>  <ref_mols>  (288) 
x0434_0

>  <creator>  (288) 
Will Poole

>  <energy minimised>  (288) 
True

$$$$
WPC0494_minimised.pdb
     RDKit          3D

 24 25  0  0  1  0  0  0  0  0999 V2000
   13.2360    5.4040   23.9910 N   0  0  0  0  0  0  0  0  0  0  0  0
   12.8410    4.8950   22.9120 C   0  0  0  0  0  0  0  0  0  0  0  0
   13.1830    5.4200   21.7280 N   0  0  0  0  0  0  0  0  0  0  0  0
   12.9830    3.5810   22.6830 N   0  0  0  0  0  0  0  0  0  0  0  0
   12.4700    2.6030   23.4500 C   0  0  0  0  0  0  0  0  0  0  0  0
   11.5890    2.7450   24.2700 O   0  0  0  0  0  0  0  0  0  0  0  0
   13.1350    1.4380   23.2080 N   0  0  0  0  0  0  0  0  0  0  0  0
   12.8670    0.1850   23.8890 C   0  0  0  0  0  0  0  0  0  0  0  0
   11.5110   -0.3560   23.5030 C   0  0  0  0  0  0  0  0  0  0  0  0
   11.3650   -1.1010   22.3230 C   0  0  0  0  0  0  0  0  0  0  0  0
   10.0820   -1.3960   21.8470 C   0  0  0  0  0  0  0  0  0  0  0  0
    8.9530   -0.9240   22.5310 C   0  0  0  0  0  0  0  0  0  0  0  0
    7.6910   -0.9310   21.9110 N   0  0  0  0  0  0  0  0  0  0  0  0
    7.4620   -0.4400   20.6540 C   0  0  0  0  0  0  0  0  0  0  0  0
    8.3220   -0.2230   19.8190 O   0  0  0  0  0  0  0  0  0  0  0  0
    6.1400   -0.1680   20.4460 N   0  0  0  0  0  0  0  0  0  0  0  0
    5.6130    0.5450   19.3450 C   0  0  0  0  0  0  0  0  0  0  0  0
    4.6530    1.5390   19.5730 C   0  0  0  0  0  0  0  0  0  0  0  0
    4.2320    2.2990   18.4750 C   0  0  0  0  0  0  0  0  0  0  0  0
    4.7950    2.0660   17.2130 C   0  0  0  0  0  0  0  0  0  0  0  0
    5.6920    1.0830   16.9780 N   0  0  0  0  0  0  0  0  0  0  0  0
    6.0950    0.3490   18.0330 C   0  0  0  0  0  0  0  0  0  0  0  0
    9.0970   -0.2750   23.7640 C   0  0  0  0  0  0  0  0  0  0  0  0
   10.3790    0.0020   24.2570 C   0  0  0  0  0  0  0  0  0  0  0  0
  2  1  1  0
  2  3  1  0
  2  4  1  0
  4  5  1  0
  5  6  2  0
  5  7  1  0
  7  8  1  0
  8  9  1  0
  9 24  2  0
  9 10  1  0
 10 11  2  0
 11 12  1  0
 12 13  1  0
 12 23  2  0
 13 14  1  0
 14 15  2  0
 14 16  1  0
 16 17  1  0
 17 18  2  0
 17 22  1  0
 18 19  1  0
 19 20  2  0
 20 21  1  0
 21 22  2  0
 23 24  1  0
M  END
>  <original SMILES>  (289) 
NC(N)NC(=O)NCc1ccc(NC(=O)Nc2cccnc2)cc1

>  <AutoDock Predicted Affinity>  (289) 
-6.92472

>  <ref_pdb>  (289) 
x0434_0

>  <ref_mols>  (289) 
x0434_0

>  <creator>  (289) 
Will Poole

>  <energy minimised>  (289) 
True

$$$$
WPC0812_minimised.pdb
     RDKit          3D

 21 22  0  0  1  0  0  0  0  0999 V2000
   13.1580    4.6910   23.9080 N   0  0  0  0  0  0  0  0  0  0  0  0
   12.9380    3.8140   23.0510 C   0  0  0  0  0  0  0  0  0  0  0  0
   12.8860    4.2400   21.8000 N   0  0  0  0  0  0  0  0  0  0  0  0
   13.7650    2.7620   23.0150 N   0  0  0  0  0  0  0  0  0  0  0  0
   13.4640    1.3860   23.4400 C   0  0  0  0  0  0  0  0  0  0  0  0
   12.0700    0.9110   23.0980 C   0  0  0  0  0  0  0  0  0  0  0  0
   11.8880   -0.0920   22.1310 C   0  0  0  0  0  0  0  0  0  0  0  0
   10.5960   -0.5280   21.8140 C   0  0  0  0  0  0  0  0  0  0  0  0
    9.4850    0.0370   22.4580 C   0  0  0  0  0  0  0  0  0  0  0  0
    8.1810   -0.2630   22.0230 N   0  0  0  0  0  0  0  0  0  0  0  0
    7.7590   -0.0780   20.7360 C   0  0  0  0  0  0  0  0  0  0  0  0
    8.5030    0.1290   19.7970 O   0  0  0  0  0  0  0  0  0  0  0  0
    6.3980   -0.0690   20.6160 N   0  0  0  0  0  0  0  0  0  0  0  0
    5.7140    0.4920   19.5140 C   0  0  0  0  0  0  0  0  0  0  0  0
    4.7520    1.4810   19.7520 C   0  0  0  0  0  0  0  0  0  0  0  0
    4.2220    2.1510   18.6430 C   0  0  0  0  0  0  0  0  0  0  0  0
    4.6770    1.8300   17.3570 C   0  0  0  0  0  0  0  0  0  0  0  0
    5.5660    0.8400   17.1140 N   0  0  0  0  0  0  0  0  0  0  0  0
    6.0800    0.1990   18.1820 C   0  0  0  0  0  0  0  0  0  0  0  0
    9.6670    0.9950   23.4650 C   0  0  0  0  0  0  0  0  0  0  0  0
   10.9600    1.4270   23.7920 C   0  0  0  0  0  0  0  0  0  0  0  0
  2  1  1  0
  2  3  1  0
  2  4  1  0
  4  5  1  0
  5  6  1  0
  6 21  2  0
  6  7  1  0
  7  8  2  0
  8  9  1  0
  9 10  1  0
  9 20  2  0
 10 11  1  0
 11 12  2  0
 11 13  1  0
 13 14  1  0
 14 15  2  0
 14 19  1  0
 15 16  1  0
 16 17  2  0
 17 18  1  0
 18 19  2  0
 20 21  1  0
M  END
>  <original SMILES>  (290) 
NC(N)NCc1ccc(NC(=O)Nc2cccnc2)cc1

>  <AutoDock Predicted Affinity>  (290) 
-6.35521

>  <ref_pdb>  (290) 
x0434_0

>  <ref_mols>  (290) 
x0434_0

>  <creator>  (290) 
Will Poole

>  <energy minimised>  (290) 
True

$$$$
WPC0924_minimised.pdb
     RDKit          3D

 21 22  0  0  1  0  0  0  0  0999 V2000
   14.4100    0.9680   22.8490 N   0  0  0  0  0  0  0  0  0  0  0  0
   13.1880    1.7110   23.1660 C   0  0  2  0  0  0  0  0  0  0  0  0
   11.9220    0.9230   22.9070 C   0  0  0  0  0  0  0  0  0  0  0  0
   11.8460   -0.0960   21.9380 C   0  0  0  0  0  0  0  0  0  0  0  0
   10.6160   -0.7140   21.6780 C   0  0  0  0  0  0  0  0  0  0  0  0
    9.4600   -0.3010   22.3570 C   0  0  0  0  0  0  0  0  0  0  0  0
    8.1870   -0.6870   21.9010 N   0  0  0  0  0  0  0  0  0  0  0  0
    7.7550   -0.4000   20.6360 C   0  0  0  0  0  0  0  0  0  0  0  0
    8.4930   -0.1360   19.7050 O   0  0  0  0  0  0  0  0  0  0  0  0
    6.3930   -0.3430   20.5350 N   0  0  0  0  0  0  0  0  0  0  0  0
    5.7200    0.3110   19.4770 C   0  0  0  0  0  0  0  0  0  0  0  0
    4.7970    1.3190   19.7780 C   0  0  0  0  0  0  0  0  0  0  0  0
    4.2760    2.0640   18.7130 C   0  0  0  0  0  0  0  0  0  0  0  0
    4.7060    1.7980   17.4050 C   0  0  0  0  0  0  0  0  0  0  0  0
    5.5630    0.7970   17.1030 N   0  0  0  0  0  0  0  0  0  0  0  0
    6.0650    0.0810   18.1280 C   0  0  0  0  0  0  0  0  0  0  0  0
    9.5450    0.6590   23.3710 C   0  0  0  0  0  0  0  0  0  0  0  0
   10.7770    1.2620   23.6510 C   0  0  0  0  0  0  0  0  0  0  0  0
   13.2250    3.3680   22.2860 P   0  0  0  0  0  0  0  0  0  0  0  0
   14.4820    4.1190   23.0830 O   0  0  0  0  0  0  0  0  0  0  0  0
   11.8330    4.1540   22.7760 O   0  0  0  0  0  0  0  0  0  0  0  0
  2  1  1  6
  2 19  1  0
  2  3  1  0
  3 18  2  0
  3  4  1  0
  4  5  2  0
  5  6  1  0
  6  7  1  0
  6 17  2  0
  7  8  1  0
  8  9  2  0
  8 10  1  0
 10 11  1  0
 11 12  2  0
 11 16  1  0
 12 13  1  0
 13 14  2  0
 14 15  1  0
 15 16  2  0
 17 18  1  0
 19 20  1  0
 19 21  1  0
M  END
>  <original SMILES>  (291) 
NC(c1ccc(NC(=O)Nc2cccnc2)cc1)P(O)O

>  <AutoDock Predicted Affinity>  (291) 
-6.15169

>  <ref_pdb>  (291) 
x0434_0

>  <ref_mols>  (291) 
x0434_0

>  <creator>  (291) 
Will Poole

>  <energy minimised>  (291) 
True

$$$$
WPC0840_minimised.pdb
     RDKit          3D

 24 26  0  0  1  0  0  0  0  0999 V2000
   14.1390    6.2200   22.1410 N   0  0  0  0  0  0  0  0  0  0  0  0
   13.2660    5.2240   22.3560 C   0  0  1  0  0  0  0  0  0  0  0  0
   13.2170    4.2150   21.5960 N   0  0  0  0  0  0  0  0  0  0  0  0
   12.6030    3.1130   22.3470 C   0  0  1  0  0  0  0  0  0  0  0  0
   13.7220    2.0660   22.6030 C   0  0  0  0  0  0  0  0  0  0  0  0
   13.3480    0.8900   23.5320 C   0  0  0  0  0  0  0  0  0  0  0  0
   11.9790    0.3200   23.2370 C   0  0  0  0  0  0  0  0  0  0  0  0
   11.7900   -0.4880   22.1070 C   0  0  0  0  0  0  0  0  0  0  0  0
   10.4970   -0.8920   21.7560 C   0  0  0  0  0  0  0  0  0  0  0  0
    9.3920   -0.4660   22.5070 C   0  0  0  0  0  0  0  0  0  0  0  0
    8.0850   -0.6400   22.0110 N   0  0  0  0  0  0  0  0  0  0  0  0
    7.6980   -0.2790   20.7480 C   0  0  0  0  0  0  0  0  0  0  0  0
    8.4640   -0.0040   19.8430 O   0  0  0  0  0  0  0  0  0  0  0  0
    6.3410   -0.1950   20.6110 N   0  0  0  0  0  0  0  0  0  0  0  0
    5.6920    0.4240   19.5180 C   0  0  0  0  0  0  0  0  0  0  0  0
    4.7420    1.4220   19.7690 C   0  0  0  0  0  0  0  0  0  0  0  0
    4.2250    2.1170   18.6680 C   0  0  0  0  0  0  0  0  0  0  0  0
    4.6830    1.8120   17.3780 C   0  0  0  0  0  0  0  0  0  0  0  0
    5.5650    0.8190   17.1250 N   0  0  0  0  0  0  0  0  0  0  0  0
    6.0670    0.1560   18.1840 C   0  0  0  0  0  0  0  0  0  0  0  0
    9.5870    0.2680   23.6830 C   0  0  0  0  0  0  0  0  0  0  0  0
   10.8820    0.6520   24.0560 C   0  0  0  0  0  0  0  0  0  0  0  0
   12.0810    3.8420   23.6030 C   0  0  0  0  0  0  0  0  0  0  0  0
   12.9050    5.0160   23.6340 O   0  0  0  0  0  0  0  0  0  0  0  0
  2  1  1  1
  2  3  1  0
  2 24  1  0
  3  4  1  0
  4 23  1  0
  4  5  1  1
  5  6  1  0
  6  7  1  0
  7 22  1  0
  7  8  2  0
  8  9  1  0
  9 10  2  0
 10 11  1  0
 10 21  1  0
 11 12  1  0
 12 13  2  0
 12 14  1  0
 14 15  1  0
 15 16  2  0
 15 20  1  0
 16 17  1  0
 17 18  2  0
 18 19  1  0
 19 20  2  0
 21 22  2  0
 23 24  1  0
M  END
>  <original SMILES>  (292) 
NC1NC(CCc2ccc(NC(=O)Nc3cccnc3)cc2)CO1

>  <AutoDock Predicted Affinity>  (292) 
-6.909473

>  <ref_pdb>  (292) 
x0434_0

>  <ref_mols>  (292) 
x0434_0

>  <creator>  (292) 
Will Poole

>  <energy minimised>  (292) 
True

$$$$
WPC1031_minimised.pdb
     RDKit          3D

 24 26  0  0  1  0  0  0  0  0999 V2000
   10.9680    4.9550   22.8250 N   0  0  0  0  0  0  0  0  0  0  0  0
   12.3070    4.8890   22.7740 C   0  0  1  0  0  0  0  0  0  0  0  0
   13.0090    4.1330   23.5070 N   0  0  0  0  0  0  0  0  0  0  0  0
   14.3460    4.0540   22.9020 C   0  0  1  0  0  0  0  0  0  0  0  0
   14.5490    2.6890   22.2080 C   0  0  0  0  0  0  0  0  0  0  0  0
   14.3360    1.1820   23.2490 S   0  0  0  0  0  0  0  0  0  0  0  0
   12.6280    0.7580   23.0260 C   0  0  0  0  0  0  0  0  0  0  0  0
   12.2790   -0.1500   22.0170 C   0  0  0  0  0  0  0  0  0  0  0  0
   10.9290   -0.4520   21.7940 C   0  0  0  0  0  0  0  0  0  0  0  0
    9.9260    0.1660   22.5570 C   0  0  0  0  0  0  0  0  0  0  0  0
    8.5690   -0.0010   22.2060 N   0  0  0  0  0  0  0  0  0  0  0  0
    8.0740    0.1940   20.9430 C   0  0  0  0  0  0  0  0  0  0  0  0
    8.7700    0.4110   19.9710 O   0  0  0  0  0  0  0  0  0  0  0  0
    6.7080    0.1650   20.8700 N   0  0  0  0  0  0  0  0  0  0  0  0
    5.9630    0.5960   19.7450 C   0  0  0  0  0  0  0  0  0  0  0  0
    4.9620    1.5560   19.9290 C   0  0  0  0  0  0  0  0  0  0  0  0
    4.3480    2.0840   18.7880 C   0  0  0  0  0  0  0  0  0  0  0  0
    4.7560    1.6510   17.5180 C   0  0  0  0  0  0  0  0  0  0  0  0
    5.6780    0.6790   17.3290 N   0  0  0  0  0  0  0  0  0  0  0  0
    6.2810    0.1830   18.4310 C   0  0  0  0  0  0  0  0  0  0  0  0
   10.2780    1.0290   23.6050 C   0  0  0  0  0  0  0  0  0  0  0  0
   11.6310    1.3210   23.8400 C   0  0  0  0  0  0  0  0  0  0  0  0
   14.3090    5.1960   21.8650 C   0  0  0  0  0  0  0  0  0  0  0  0
   12.9030    5.3820   21.6770 O   0  0  0  0  0  0  0  0  0  0  0  0
  2  1  1  6
  2  3  1  0
  2 24  1  0
  3  4  1  0
  4 23  1  0
  4  5  1  6
  5  6  1  0
  6  7  1  0
  7 22  1  0
  7  8  2  0
  8  9  1  0
  9 10  2  0
 10 11  1  0
 10 21  1  0
 11 12  1  0
 12 13  2  0
 12 14  1  0
 14 15  1  0
 15 16  2  0
 15 20  1  0
 16 17  1  0
 17 18  2  0
 18 19  1  0
 19 20  2  0
 21 22  2  0
 23 24  1  0
M  END
>  <original SMILES>  (293) 
NC1NC(CSc2ccc(NC(=O)Nc3cccnc3)cc2)CO1

>  <AutoDock Predicted Affinity>  (293) 
-6.32801

>  <ref_pdb>  (293) 
x0434_0

>  <ref_mols>  (293) 
x0434_0

>  <creator>  (293) 
Will Poole

>  <energy minimised>  (293) 
True

$$$$
WPC0446_minimised.pdb
     RDKit          3D

 20 21  0  0  1  0  0  0  0  0999 V2000
   14.0970    2.3090   22.6340 N   0  0  0  0  0  0  0  0  0  0  0  0
   14.2160    0.8430   22.6950 C   0  0  0  0  0  0  0  0  0  0  0  0
   13.4030    0.1980   23.8490 C   0  0  2  0  0  0  0  0  0  0  0  0
   14.0130   -1.0390   24.3570 N   0  0  0  0  0  0  0  0  0  0  0  0
   11.9580   -0.0490   23.4510 C   0  0  0  0  0  0  0  0  0  0  0  0
   11.6470   -0.9250   22.3950 C   0  0  0  0  0  0  0  0  0  0  0  0
   10.3200   -1.0660   21.9650 C   0  0  0  0  0  0  0  0  0  0  0  0
    9.2980   -0.3370   22.5900 C   0  0  0  0  0  0  0  0  0  0  0  0
    7.9910   -0.3490   22.0680 N   0  0  0  0  0  0  0  0  0  0  0  0
    7.6750   -0.0380   20.7740 C   0  0  0  0  0  0  0  0  0  0  0  0
    8.4870    0.1140   19.8810 O   0  0  0  0  0  0  0  0  0  0  0  0
    6.3310    0.1270   20.5930 N   0  0  0  0  0  0  0  0  0  0  0  0
    5.7220    0.6970   19.4520 C   0  0  0  0  0  0  0  0  0  0  0  0
    4.7280    1.6650   19.6340 C   0  0  0  0  0  0  0  0  0  0  0  0
    4.2300    2.3070   18.4940 C   0  0  0  0  0  0  0  0  0  0  0  0
    4.7520    1.9850   17.2340 C   0  0  0  0  0  0  0  0  0  0  0  0
    5.6730    1.0130   17.0430 N   0  0  0  0  0  0  0  0  0  0  0  0
    6.1530    0.3960   18.1410 C   0  0  0  0  0  0  0  0  0  0  0  0
    9.5930    0.4910   23.6820 C   0  0  0  0  0  0  0  0  0  0  0  0
   10.9200    0.6370   24.1090 C   0  0  0  0  0  0  0  0  0  0  0  0
  1  2  1  0
  2  3  1  0
  3  4  1  6
  3  5  1  0
  5 20  2  0
  5  6  1  0
  6  7  2  0
  7  8  1  0
  8  9  1  0
  8 19  2  0
  9 10  1  0
 10 11  2  0
 10 12  1  0
 12 13  1  0
 13 14  2  0
 13 18  1  0
 14 15  1  0
 15 16  2  0
 16 17  1  0
 17 18  2  0
 19 20  1  0
M  END
>  <original SMILES>  (294) 
NCC(N)c1ccc(NC(=O)Nc2cccnc2)cc1

>  <AutoDock Predicted Affinity>  (294) 
-6.045555

>  <ref_pdb>  (294) 
x0434_0

>  <ref_mols>  (294) 
x0434_0

>  <creator>  (294) 
Will Poole

>  <energy minimised>  (294) 
True

$$$$
WPC1049_minimised.pdb
     RDKit          3D

 20 21  0  0  1  0  0  0  0  0999 V2000
   13.7790    2.2790   22.8980 N   0  0  0  0  0  0  0  0  0  0  0  0
   14.0660    0.8560   22.6480 C   0  0  0  0  0  0  0  0  0  0  0  0
   13.4520   -0.1120   23.6910 C   0  0  2  0  0  0  0  0  0  0  0  0
   14.1620   -1.3500   23.6760 O   0  0  0  0  0  0  0  0  0  0  0  0
   11.9800   -0.3440   23.3920 C   0  0  0  0  0  0  0  0  0  0  0  0
   11.5960   -1.2250   22.3650 C   0  0  0  0  0  0  0  0  0  0  0  0
   10.2530   -1.3160   21.9790 C   0  0  0  0  0  0  0  0  0  0  0  0
    9.2860   -0.5240   22.6150 C   0  0  0  0  0  0  0  0  0  0  0  0
    7.9740   -0.4660   22.1080 N   0  0  0  0  0  0  0  0  0  0  0  0
    7.6670   -0.1160   20.8220 C   0  0  0  0  0  0  0  0  0  0  0  0
    8.4810    0.0260   19.9310 O   0  0  0  0  0  0  0  0  0  0  0  0
    6.3290    0.0950   20.6460 N   0  0  0  0  0  0  0  0  0  0  0  0
    5.7290    0.6740   19.5040 C   0  0  0  0  0  0  0  0  0  0  0  0
    4.7450    1.6530   19.6820 C   0  0  0  0  0  0  0  0  0  0  0  0
    4.2540    2.2950   18.5390 C   0  0  0  0  0  0  0  0  0  0  0  0
    4.7690    1.9610   17.2800 C   0  0  0  0  0  0  0  0  0  0  0  0
    5.6790    0.9780   17.0920 N   0  0  0  0  0  0  0  0  0  0  0  0
    6.1550    0.3620   18.1930 C   0  0  0  0  0  0  0  0  0  0  0  0
    9.6510    0.3140   23.6770 C   0  0  0  0  0  0  0  0  0  0  0  0
   10.9970    0.4080   24.0600 C   0  0  0  0  0  0  0  0  0  0  0  0
  1  2  1  0
  2  3  1  0
  3  4  1  6
  3  5  1  0
  5 20  2  0
  5  6  1  0
  6  7  2  0
  7  8  1  0
  8  9  1  0
  8 19  2  0
  9 10  1  0
 10 11  2  0
 10 12  1  0
 12 13  1  0
 13 14  2  0
 13 18  1  0
 14 15  1  0
 15 16  2  0
 16 17  1  0
 17 18  2  0
 19 20  1  0
M  END
>  <original SMILES>  (295) 
NCC(O)c1ccc(NC(=O)Nc2cccnc2)cc1

>  <AutoDock Predicted Affinity>  (295) 
-5.989075

>  <ref_pdb>  (295) 
x0434_0

>  <ref_mols>  (295) 
x0434_0

>  <creator>  (295) 
Will Poole

>  <energy minimised>  (295) 
True

$$$$
WPC0761_minimised.pdb
     RDKit          3D

 23 24  0  0  0  0  0  0  0  0999 V2000
   12.5480    4.5060   20.6780 N   0  0  0  0  0  0  0  0  0  0  0  0
   13.3860    5.2900   21.5870 C   0  0  0  0  0  0  0  0  0  0  0  0
   14.8600    4.8930   21.4530 C   0  0  0  0  0  0  0  0  0  0  0  0
   15.0810    3.3780   21.3880 C   0  0  0  0  0  0  0  0  0  0  0  0
   14.3850    2.6130   22.5180 C   0  0  0  0  0  0  0  0  0  0  0  0
   14.8300    1.2240   22.4930 N   0  0  0  0  0  0  0  0  0  0  0  0
   14.1320    0.3010   23.3950 C   0  0  0  0  0  0  0  0  0  0  0  0
   12.6340    0.2050   23.1430 C   0  0  0  0  0  0  0  0  0  0  0  0
   12.1330   -0.7560   22.2500 C   0  0  0  0  0  0  0  0  0  0  0  0
   10.7560   -0.8340   21.9930 C   0  0  0  0  0  0  0  0  0  0  0  0
    9.8680    0.0370   22.6420 C   0  0  0  0  0  0  0  0  0  0  0  0
    8.4980    0.0300   22.3060 N   0  0  0  0  0  0  0  0  0  0  0  0
    8.0170    0.2720   21.0470 C   0  0  0  0  0  0  0  0  0  0  0  0
    8.7270    0.4700   20.0840 O   0  0  0  0  0  0  0  0  0  0  0  0
    6.6530    0.2940   20.9600 N   0  0  0  0  0  0  0  0  0  0  0  0
    5.9310    0.6970   19.8090 C   0  0  0  0  0  0  0  0  0  0  0  0
    4.9300    1.6660   19.9460 C   0  0  0  0  0  0  0  0  0  0  0  0
    4.3340    2.1550   18.7790 C   0  0  0  0  0  0  0  0  0  0  0  0
    4.7580    1.6770   17.5310 C   0  0  0  0  0  0  0  0  0  0  0  0
    5.6770    0.6950   17.3860 N   0  0  0  0  0  0  0  0  0  0  0  0
    6.2650    0.2380   18.5130 C   0  0  0  0  0  0  0  0  0  0  0  0
   10.3550    0.9660   23.5720 C   0  0  0  0  0  0  0  0  0  0  0  0
   11.7350    1.0520   23.8180 C   0  0  0  0  0  0  0  0  0  0  0  0
  1  2  1  0
  2  3  1  0
  3  4  1  0
  4  5  1  0
  5  6  1  0
  6  7  1  0
  7  8  1  0
  8 23  2  0
  8  9  1  0
  9 10  2  0
 10 11  1  0
 11 12  1  0
 11 22  2  0
 12 13  1  0
 13 14  2  0
 13 15  1  0
 15 16  1  0
 16 17  2  0
 16 21  1  0
 17 18  1  0
 18 19  2  0
 19 20  1  0
 20 21  2  0
 22 23  1  0
M  END
>  <original SMILES>  (296) 
NCCCCNCc1ccc(NC(=O)Nc2cccnc2)cc1

>  <AutoDock Predicted Affinity>  (296) 
-5.526035

>  <ref_pdb>  (296) 
x0434_0

>  <ref_mols>  (296) 
x0434_0

>  <creator>  (296) 
Will Poole

>  <energy minimised>  (296) 
True

$$$$
WPC0804_minimised.pdb
     RDKit          3D

 22 23  0  0  0  0  0  0  0  0999 V2000
   13.0280    5.4810   24.3220 N   0  0  0  0  0  0  0  0  0  0  0  0
   12.9420    5.3910   22.8630 C   0  0  0  0  0  0  0  0  0  0  0  0
   13.8040    4.2640   22.2920 C   0  0  0  0  0  0  0  0  0  0  0  0
   13.2590    2.8630   22.6210 C   0  0  0  0  0  0  0  0  0  0  0  0
   14.2920    1.7520   22.3340 C   0  0  0  0  0  0  0  0  0  0  0  0
   13.9970    0.2970   23.4010 S   0  0  0  0  0  0  0  0  0  0  0  0
   12.2780   -0.0390   23.1200 C   0  0  0  0  0  0  0  0  0  0  0  0
   11.9050   -0.8830   22.0660 C   0  0  0  0  0  0  0  0  0  0  0  0
   10.5470   -1.0690   21.7790 C   0  0  0  0  0  0  0  0  0  0  0  0
    9.5670   -0.3930   22.5220 C   0  0  0  0  0  0  0  0  0  0  0  0
    8.2260   -0.4110   22.0900 N   0  0  0  0  0  0  0  0  0  0  0  0
    7.8290   -0.0610   20.8270 C   0  0  0  0  0  0  0  0  0  0  0  0
    8.5950    0.1810   19.9120 O   0  0  0  0  0  0  0  0  0  0  0  0
    6.4720    0.0260   20.6940 N   0  0  0  0  0  0  0  0  0  0  0  0
    5.8060    0.5790   19.5750 C   0  0  0  0  0  0  0  0  0  0  0  0
    4.8180    1.5480   19.7870 C   0  0  0  0  0  0  0  0  0  0  0  0
    4.2810    2.1850   18.6620 C   0  0  0  0  0  0  0  0  0  0  0  0
    4.7540    1.8520   17.3850 C   0  0  0  0  0  0  0  0  0  0  0  0
    5.6650    0.8760   17.1660 N   0  0  0  0  0  0  0  0  0  0  0  0
    6.1870    0.2680   18.2510 C   0  0  0  0  0  0  0  0  0  0  0  0
    9.9370    0.3980   23.6180 C   0  0  0  0  0  0  0  0  0  0  0  0
   11.2960    0.5670   23.9210 C   0  0  0  0  0  0  0  0  0  0  0  0
  1  2  1  0
  2  3  1  0
  3  4  1  0
  4  5  1  0
  5  6  1  0
  6  7  1  0
  7 22  2  0
  7  8  1  0
  8  9  2  0
  9 10  1  0
 10 11  1  0
 10 21  2  0
 11 12  1  0
 12 13  2  0
 12 14  1  0
 14 15  1  0
 15 16  2  0
 15 20  1  0
 16 17  1  0
 17 18  2  0
 18 19  1  0
 19 20  2  0
 21 22  1  0
M  END
>  <original SMILES>  (297) 
NCCCCSc1ccc(NC(=O)Nc2cccnc2)cc1

>  <AutoDock Predicted Affinity>  (297) 
-5.34664

>  <ref_pdb>  (297) 
x0434_0

>  <ref_mols>  (297) 
x0434_0

>  <creator>  (297) 
Will Poole

>  <energy minimised>  (297) 
True

$$$$
WPC0542_minimised.pdb
     RDKit          3D

 21 22  0  0  0  0  0  0  0  0999 V2000
   13.4240    5.7340   22.8900 N   0  0  0  0  0  0  0  0  0  0  0  0
   14.1640    4.4790   22.8430 C   0  0  0  0  0  0  0  0  0  0  0  0
   13.3000    3.3390   22.2870 C   0  0  0  0  0  0  0  0  0  0  0  0
   14.0780    1.9960   22.2000 C   0  0  0  0  0  0  0  0  0  0  0  0
   13.7140    0.9690   23.2930 C   0  0  0  0  0  0  0  0  0  0  0  0
   12.3020    0.4440   23.1060 C   0  0  0  0  0  0  0  0  0  0  0  0
   12.0420   -0.5140   22.1110 C   0  0  0  0  0  0  0  0  0  0  0  0
   10.7220   -0.8910   21.8320 C   0  0  0  0  0  0  0  0  0  0  0  0
    9.6570   -0.3030   22.5310 C   0  0  0  0  0  0  0  0  0  0  0  0
    8.3300   -0.4880   22.0960 N   0  0  0  0  0  0  0  0  0  0  0  0
    7.9050   -0.2030   20.8260 C   0  0  0  0  0  0  0  0  0  0  0  0
    8.6470    0.0130   19.8870 O   0  0  0  0  0  0  0  0  0  0  0  0
    6.5440   -0.1230   20.7190 N   0  0  0  0  0  0  0  0  0  0  0  0
    5.8630    0.4440   19.6160 C   0  0  0  0  0  0  0  0  0  0  0  0
    4.9060    1.4390   19.8500 C   0  0  0  0  0  0  0  0  0  0  0  0
    4.3550    2.0860   18.7380 C   0  0  0  0  0  0  0  0  0  0  0  0
    4.7850    1.7380   17.4500 C   0  0  0  0  0  0  0  0  0  0  0  0
    5.6690    0.7440   17.2120 N   0  0  0  0  0  0  0  0  0  0  0  0
    6.2070    0.1270   18.2840 C   0  0  0  0  0  0  0  0  0  0  0  0
    9.9160    0.5940   23.5750 C   0  0  0  0  0  0  0  0  0  0  0  0
   11.2360    0.9650   23.8630 C   0  0  0  0  0  0  0  0  0  0  0  0
  1  2  1  0
  2  3  1  0
  3  4  1  0
  4  5  1  0
  5  6  1  0
  6 21  2  0
  6  7  1  0
  7  8  2  0
  8  9  1  0
  9 10  1  0
  9 20  2  0
 10 11  1  0
 11 12  2  0
 11 13  1  0
 13 14  1  0
 14 15  2  0
 14 19  1  0
 15 16  1  0
 16 17  2  0
 17 18  1  0
 18 19  2  0
 20 21  1  0
M  END
>  <original SMILES>  (298) 
NCCCCc1ccc(NC(=O)Nc2cccnc2)cc1

>  <AutoDock Predicted Affinity>  (298) 
-5.823845

>  <ref_pdb>  (298) 
x0434_0

>  <ref_mols>  (298) 
x0434_0

>  <creator>  (298) 
Will Poole

>  <energy minimised>  (298) 
True

$$$$
WPC0574_minimised.pdb
     RDKit          3D

 24 25  0  0  0  0  0  0  0  0999 V2000
    9.4000    6.8310   23.1970 N   0  0  0  0  0  0  0  0  0  0  0  0
    9.3320    5.3780   23.1490 C   0  0  0  0  0  0  0  0  0  0  0  0
   10.7520    4.8110   23.0890 C   0  0  0  0  0  0  0  0  0  0  0  0
   10.7100    3.2830   22.9110 C   0  0  0  0  0  0  0  0  0  0  0  0
   11.8390    2.7920   22.1120 N   0  0  0  0  0  0  0  0  0  0  0  0
   13.1740    3.0640   22.6560 C   0  0  0  0  0  0  0  0  0  0  0  0
   14.1370    1.8950   22.3740 C   0  0  0  0  0  0  0  0  0  0  0  0
   13.9350    0.5050   23.5670 S   0  0  0  0  0  0  0  0  0  0  0  0
   12.2650   -0.0260   23.2880 C   0  0  0  0  0  0  0  0  0  0  0  0
   11.9500   -0.6510   22.0770 C   0  0  0  0  0  0  0  0  0  0  0  0
   10.6100   -0.8980   21.7620 C   0  0  0  0  0  0  0  0  0  0  0  0
    9.5850   -0.4890   22.6250 C   0  0  0  0  0  0  0  0  0  0  0  0
    8.2480   -0.4820   22.1690 N   0  0  0  0  0  0  0  0  0  0  0  0
    7.8510   -0.0420   20.9300 C   0  0  0  0  0  0  0  0  0  0  0  0
    8.6050    0.2840   20.0310 O   0  0  0  0  0  0  0  0  0  0  0  0
    6.4920    0.0200   20.7910 N   0  0  0  0  0  0  0  0  0  0  0  0
    5.8260    0.5670   19.6690 C   0  0  0  0  0  0  0  0  0  0  0  0
    4.8480    1.5490   19.8670 C   0  0  0  0  0  0  0  0  0  0  0  0
    4.3090    2.1660   18.7320 C   0  0  0  0  0  0  0  0  0  0  0  0
    4.7650    1.7980   17.4580 C   0  0  0  0  0  0  0  0  0  0  0  0
    5.6670    0.8110   17.2540 N   0  0  0  0  0  0  0  0  0  0  0  0
    6.1980    0.2290   18.3490 C   0  0  0  0  0  0  0  0  0  0  0  0
    9.9060    0.0310   23.8870 C   0  0  0  0  0  0  0  0  0  0  0  0
   11.2520    0.2490   24.2240 C   0  0  0  0  0  0  0  0  0  0  0  0
  1  2  1  0
  2  3  1  0
  3  4  1  0
  4  5  1  0
  5  6  1  0
  6  7  1  0
  7  8  1  0
  8  9  1  0
  9 24  2  0
  9 10  1  0
 10 11  2  0
 11 12  1  0
 12 13  1  0
 12 23  2  0
 13 14  1  0
 14 15  2  0
 14 16  1  0
 16 17  1  0
 17 18  2  0
 17 22  1  0
 18 19  1  0
 19 20  2  0
 20 21  1  0
 21 22  2  0
 23 24  1  0
M  END
>  <original SMILES>  (299) 
NCCCNCCSc1ccc(NC(=O)Nc2cccnc2)cc1

>  <AutoDock Predicted Affinity>  (299) 
-4.59868

>  <ref_pdb>  (299) 
x0434_0

>  <ref_mols>  (299) 
x0434_0

>  <creator>  (299) 
Will Poole

>  <energy minimised>  (299) 
True

$$$$
WPC0635_minimised.pdb
     RDKit          3D

 21 22  0  0  0  0  0  0  0  0999 V2000
   14.2020    4.7660   23.3220 N   0  0  0  0  0  0  0  0  0  0  0  0
   13.0600    4.4410   22.4620 C   0  0  0  0  0  0  0  0  0  0  0  0
   12.6160    2.9970   22.7410 C   0  0  0  0  0  0  0  0  0  0  0  0
   13.7170    1.9450   22.4550 C   0  0  0  0  0  0  0  0  0  0  0  0
   13.5600    0.4970   23.5670 S   0  0  0  0  0  0  0  0  0  0  0  0
   11.8870    0.0040   23.2600 C   0  0  0  0  0  0  0  0  0  0  0  0
   11.6100   -0.8020   22.1490 C   0  0  0  0  0  0  0  0  0  0  0  0
   10.2790   -1.0440   21.7900 C   0  0  0  0  0  0  0  0  0  0  0  0
    9.2340   -0.4560   22.5180 C   0  0  0  0  0  0  0  0  0  0  0  0
    7.9250   -0.4660   22.0000 N   0  0  0  0  0  0  0  0  0  0  0  0
    7.6140   -0.0610   20.7290 C   0  0  0  0  0  0  0  0  0  0  0  0
    8.4320    0.1690   19.8580 O   0  0  0  0  0  0  0  0  0  0  0  0
    6.2710    0.1010   20.5420 N   0  0  0  0  0  0  0  0  0  0  0  0
    5.6780    0.7020   19.4090 C   0  0  0  0  0  0  0  0  0  0  0  0
    4.6970    1.6830   19.5940 C   0  0  0  0  0  0  0  0  0  0  0  0
    4.2260    2.3520   18.4580 C   0  0  0  0  0  0  0  0  0  0  0  0
    4.7590    2.0420   17.2000 C   0  0  0  0  0  0  0  0  0  0  0  0
    5.6680    1.0590   17.0060 N   0  0  0  0  0  0  0  0  0  0  0  0
    6.1220    0.4170   18.1000 C   0  0  0  0  0  0  0  0  0  0  0  0
    9.5110    0.2770   23.6810 C   0  0  0  0  0  0  0  0  0  0  0  0
   10.8430    0.5000   24.0580 C   0  0  0  0  0  0  0  0  0  0  0  0
  1  2  1  0
  2  3  1  0
  3  4  1  0
  4  5  1  0
  5  6  1  0
  6 21  2  0
  6  7  1  0
  7  8  2  0
  8  9  1  0
  9 10  1  0
  9 20  2  0
 10 11  1  0
 11 12  2  0
 11 13  1  0
 13 14  1  0
 14 15  2  0
 14 19  1  0
 15 16  1  0
 16 17  2  0
 17 18  1  0
 18 19  2  0
 20 21  1  0
M  END
>  <original SMILES>  (300) 
NCCCSc1ccc(NC(=O)Nc2cccnc2)cc1

>  <AutoDock Predicted Affinity>  (300) 
-5.25595

>  <ref_pdb>  (300) 
x0434_0

>  <ref_mols>  (300) 
x0434_0

>  <creator>  (300) 
Will Poole

>  <energy minimised>  (300) 
True

$$$$
WPC1015_minimised.pdb
     RDKit          3D

 20 21  0  0  0  0  0  0  0  0999 V2000
   11.6770    2.6450   21.4610 N   0  0  0  0  0  0  0  0  0  0  0  0
   12.8530    3.0360   22.2470 C   0  0  0  0  0  0  0  0  0  0  0  0
   13.8710    1.8770   22.3740 C   0  0  0  0  0  0  0  0  0  0  0  0
   13.4870    0.7620   23.3760 C   0  0  0  0  0  0  0  0  0  0  0  0
   12.0890    0.2130   23.1720 C   0  0  0  0  0  0  0  0  0  0  0  0
   11.8320   -0.6860   22.1250 C   0  0  0  0  0  0  0  0  0  0  0  0
   10.5110   -1.0490   21.8320 C   0  0  0  0  0  0  0  0  0  0  0  0
    9.4470   -0.5000   22.5630 C   0  0  0  0  0  0  0  0  0  0  0  0
    8.1220   -0.6420   22.1050 N   0  0  0  0  0  0  0  0  0  0  0  0
    7.7240   -0.3190   20.8350 C   0  0  0  0  0  0  0  0  0  0  0  0
    8.4830   -0.1220   19.9060 O   0  0  0  0  0  0  0  0  0  0  0  0
    6.3700   -0.1790   20.7140 N   0  0  0  0  0  0  0  0  0  0  0  0
    5.7250    0.4260   19.6090 C   0  0  0  0  0  0  0  0  0  0  0  0
    4.7850    1.4370   19.8440 C   0  0  0  0  0  0  0  0  0  0  0  0
    4.2660    2.1130   18.7320 C   0  0  0  0  0  0  0  0  0  0  0  0
    4.7070    1.7730   17.4450 C   0  0  0  0  0  0  0  0  0  0  0  0
    5.5790    0.7670   17.2070 N   0  0  0  0  0  0  0  0  0  0  0  0
    6.0870    0.1250   18.2780 C   0  0  0  0  0  0  0  0  0  0  0  0
    9.7070    0.3290   23.6620 C   0  0  0  0  0  0  0  0  0  0  0  0
   11.0280    0.6800   23.9710 C   0  0  0  0  0  0  0  0  0  0  0  0
  1  2  1  0
  2  3  1  0
  3  4  1  0
  4  5  1  0
  5 20  2  0
  5  6  1  0
  6  7  2  0
  7  8  1  0
  8  9  1  0
  8 19  2  0
  9 10  1  0
 10 11  2  0
 10 12  1  0
 12 13  1  0
 13 14  2  0
 13 18  1  0
 14 15  1  0
 15 16  2  0
 16 17  1  0
 17 18  2  0
 19 20  1  0
M  END
>  <original SMILES>  (301) 
NCCCc1ccc(NC(=O)Nc2cccnc2)cc1

>  <AutoDock Predicted Affinity>  (301) 
-5.376056

>  <ref_pdb>  (301) 
x0434_0

>  <ref_mols>  (301) 
x0434_0

>  <creator>  (301) 
Will Poole

>  <energy minimised>  (301) 
True

$$$$
WPC1051_minimised.pdb
     RDKit          3D

 23 24  0  0  0  0  0  0  0  0999 V2000
   12.1970    7.4470   25.7970 N   0  0  0  0  0  0  0  0  0  0  0  0
   13.0120    6.7530   24.7940 C   0  0  0  0  0  0  0  0  0  0  0  0
   12.2610    5.7330   23.9050 C   0  0  0  0  0  0  0  0  0  0  0  0
   13.0870    5.3950   22.7210 N   0  0  0  0  0  0  0  0  0  0  0  0
   12.9480    4.0230   22.1950 C   0  0  0  0  0  0  0  0  0  0  0  0
   13.7310    3.0850   23.1280 C   0  0  0  0  0  0  0  0  0  0  0  0
   13.9240    1.3250   22.6180 S   0  0  0  0  0  0  0  0  0  0  0  0
   12.2780    0.6510   22.6500 C   0  0  0  0  0  0  0  0  0  0  0  0
   12.0010   -0.4420   21.8160 C   0  0  0  0  0  0  0  0  0  0  0  0
   10.6850   -0.9090   21.6970 C   0  0  0  0  0  0  0  0  0  0  0  0
    9.6460   -0.2700   22.3870 C   0  0  0  0  0  0  0  0  0  0  0  0
    8.3090   -0.5110   22.0200 N   0  0  0  0  0  0  0  0  0  0  0  0
    7.8440   -0.2410   20.7600 C   0  0  0  0  0  0  0  0  0  0  0  0
    8.5630   -0.0210   19.8040 O   0  0  0  0  0  0  0  0  0  0  0  0
    6.4810   -0.1710   20.6820 N   0  0  0  0  0  0  0  0  0  0  0  0
    5.7850    0.4080   19.5940 C   0  0  0  0  0  0  0  0  0  0  0  0
    4.8440    1.4120   19.8490 C   0  0  0  0  0  0  0  0  0  0  0  0
    4.2890    2.0790   18.7500 C   0  0  0  0  0  0  0  0  0  0  0  0
    4.7030    1.7420   17.4530 C   0  0  0  0  0  0  0  0  0  0  0  0
    5.5740    0.7400   17.1960 N   0  0  0  0  0  0  0  0  0  0  0  0
    6.1110    0.1020   18.2540 C   0  0  0  0  0  0  0  0  0  0  0  0
    9.9340    0.7540   23.2980 C   0  0  0  0  0  0  0  0  0  0  0  0
   11.2530    1.2060   23.4410 C   0  0  0  0  0  0  0  0  0  0  0  0
  1  2  1  0
  2  3  1  0
  3  4  1  0
  4  5  1  0
  5  6  1  0
  6  7  1  0
  7  8  1  0
  8 23  2  0
  8  9  1  0
  9 10  2  0
 10 11  1  0
 11 12  1  0
 11 22  2  0
 12 13  1  0
 13 14  2  0
 13 15  1  0
 15 16  1  0
 16 17  2  0
 16 21  1  0
 17 18  1  0
 18 19  2  0
 19 20  1  0
 20 21  2  0
 22 23  1  0
M  END
>  <original SMILES>  (302) 
NCCNCCSc1ccc(NC(=O)Nc2cccnc2)cc1

>  <AutoDock Predicted Affinity>  (302) 
-5.300983

>  <ref_pdb>  (302) 
x0434_0

>  <ref_mols>  (302) 
x0434_0

>  <creator>  (302) 
Will Poole

>  <energy minimised>  (302) 
True

$$$$
WPC0759_minimised.pdb
     RDKit          3D

 22 23  0  0  0  0  0  0  0  0999 V2000
   10.7280    5.3220   23.1690 N   0  0  0  0  0  0  0  0  0  0  0  0
   10.6890    3.8580   23.1940 C   0  0  0  0  0  0  0  0  0  0  0  0
   11.7570    3.2730   22.2480 C   0  0  0  0  0  0  0  0  0  0  0  0
   13.4460    3.4040   22.9800 S   0  0  0  0  0  0  0  0  0  0  0  0
   14.2330    1.8030   22.4860 C   0  0  0  0  0  0  0  0  0  0  0  0
   13.8280    0.6140   23.3850 C   0  0  0  0  0  0  0  0  0  0  0  0
   12.3910    0.1800   23.1840 C   0  0  0  0  0  0  0  0  0  0  0  0
   12.0500   -0.5780   22.0540 C   0  0  0  0  0  0  0  0  0  0  0  0
   10.7040   -0.8450   21.7820 C   0  0  0  0  0  0  0  0  0  0  0  0
    9.6950   -0.3400   22.6150 C   0  0  0  0  0  0  0  0  0  0  0  0
    8.3490   -0.3990   22.1980 N   0  0  0  0  0  0  0  0  0  0  0  0
    7.9130    0.0100   20.9640 C   0  0  0  0  0  0  0  0  0  0  0  0
    8.6480    0.3720   20.0650 O   0  0  0  0  0  0  0  0  0  0  0  0
    6.5530   -0.0000   20.8300 N   0  0  0  0  0  0  0  0  0  0  0  0
    5.8590    0.5170   19.7100 C   0  0  0  0  0  0  0  0  0  0  0  0
    4.8710    1.4870   19.9080 C   0  0  0  0  0  0  0  0  0  0  0  0
    4.3070    2.0820   18.7720 C   0  0  0  0  0  0  0  0  0  0  0  0
    4.7500    1.7000   17.4970 C   0  0  0  0  0  0  0  0  0  0  0  0
    5.6670    0.7270   17.2940 N   0  0  0  0  0  0  0  0  0  0  0  0
    6.2210    0.1680   18.3890 C   0  0  0  0  0  0  0  0  0  0  0  0
   10.0360    0.3350   23.7940 C   0  0  0  0  0  0  0  0  0  0  0  0
   11.3850    0.5860   24.0820 C   0  0  0  0  0  0  0  0  0  0  0  0
  1  2  1  0
  2  3  1  0
  3  4  1  0
  4  5  1  0
  5  6  1  0
  6  7  1  0
  7 22  2  0
  7  8  1  0
  8  9  2  0
  9 10  1  0
 10 11  1  0
 10 21  2  0
 11 12  1  0
 12 13  2  0
 12 14  1  0
 14 15  1  0
 15 16  2  0
 15 20  1  0
 16 17  1  0
 17 18  2  0
 18 19  1  0
 19 20  2  0
 21 22  1  0
M  END
>  <original SMILES>  (303) 
NCCSCCc1ccc(NC(=O)Nc2cccnc2)cc1

>  <AutoDock Predicted Affinity>  (303) 
-5.49224

>  <ref_pdb>  (303) 
x0434_0

>  <ref_mols>  (303) 
x0434_0

>  <creator>  (303) 
Will Poole

>  <energy minimised>  (303) 
True

$$$$
WPC0865_minimised.pdb
     RDKit          3D

 20 21  0  0  0  0  0  0  0  0999 V2000
   12.7380    4.5820   21.7660 N   0  0  0  0  0  0  0  0  0  0  0  0
   12.5890    3.3540   22.5520 C   0  0  0  0  0  0  0  0  0  0  0  0
   13.9050    2.5540   22.5690 C   0  0  0  0  0  0  0  0  0  0  0  0
   13.7920    0.9750   23.5190 S   0  0  0  0  0  0  0  0  0  0  0  0
   12.1530    0.3910   23.1950 C   0  0  0  0  0  0  0  0  0  0  0  0
   11.9240   -0.4490   22.0970 C   0  0  0  0  0  0  0  0  0  0  0  0
   10.6090   -0.8060   21.7680 C   0  0  0  0  0  0  0  0  0  0  0  0
    9.5310   -0.3060   22.5160 C   0  0  0  0  0  0  0  0  0  0  0  0
    8.2120   -0.4650   22.0470 N   0  0  0  0  0  0  0  0  0  0  0  0
    7.8070   -0.1100   20.7880 C   0  0  0  0  0  0  0  0  0  0  0  0
    8.5640    0.1970   19.8860 O   0  0  0  0  0  0  0  0  0  0  0  0
    6.4490   -0.0790   20.6460 N   0  0  0  0  0  0  0  0  0  0  0  0
    5.7790    0.5000   19.5440 C   0  0  0  0  0  0  0  0  0  0  0  0
    4.8080    1.4820   19.7770 C   0  0  0  0  0  0  0  0  0  0  0  0
    4.2760    2.1460   18.6640 C   0  0  0  0  0  0  0  0  0  0  0  0
    4.7370    1.8250   17.3800 C   0  0  0  0  0  0  0  0  0  0  0  0
    5.6380    0.8450   17.1420 N   0  0  0  0  0  0  0  0  0  0  0  0
    6.1550    0.2120   18.2140 C   0  0  0  0  0  0  0  0  0  0  0  0
    9.7680    0.4730   23.6570 C   0  0  0  0  0  0  0  0  0  0  0  0
   11.0840    0.8170   24.0000 C   0  0  0  0  0  0  0  0  0  0  0  0
  1  2  1  0
  2  3  1  0
  3  4  1  0
  4  5  1  0
  5 20  2  0
  5  6  1  0
  6  7  2  0
  7  8  1  0
  8  9  1  0
  8 19  2  0
  9 10  1  0
 10 11  2  0
 10 12  1  0
 12 13  1  0
 13 14  2  0
 13 18  1  0
 14 15  1  0
 15 16  2  0
 16 17  1  0
 17 18  2  0
 19 20  1  0
M  END
>  <original SMILES>  (304) 
NCCSc1ccc(NC(=O)Nc2cccnc2)cc1

>  <AutoDock Predicted Affinity>  (304) 
-5.21499

>  <ref_pdb>  (304) 
x0434_0

>  <ref_mols>  (304) 
x0434_0

>  <creator>  (304) 
Will Poole

>  <energy minimised>  (304) 
True

$$$$
WPC0845_minimised.pdb
     RDKit          3D

 19 20  0  0  0  0  0  0  0  0999 V2000
   14.0590    2.7390   22.8950 N   0  0  0  0  0  0  0  0  0  0  0  0
   14.3240    1.4260   22.3040 C   0  0  0  0  0  0  0  0  0  0  0  0
   13.8000    0.2780   23.1720 C   0  0  0  0  0  0  0  0  0  0  0  0
   12.3060    0.0910   22.9890 C   0  0  0  0  0  0  0  0  0  0  0  0
   11.8270   -0.9010   22.1180 C   0  0  0  0  0  0  0  0  0  0  0  0
   10.4520   -1.0150   21.8750 C   0  0  0  0  0  0  0  0  0  0  0  0
    9.5550   -0.1320   22.4920 C   0  0  0  0  0  0  0  0  0  0  0  0
    8.2010   -0.1340   22.1080 N   0  0  0  0  0  0  0  0  0  0  0  0
    7.7780    0.1030   20.8300 C   0  0  0  0  0  0  0  0  0  0  0  0
    8.5230    0.2310   19.8760 O   0  0  0  0  0  0  0  0  0  0  0  0
    6.4210    0.2180   20.7260 N   0  0  0  0  0  0  0  0  0  0  0  0
    5.7370    0.7100   19.5900 C   0  0  0  0  0  0  0  0  0  0  0  0
    4.7530    1.6890   19.7720 C   0  0  0  0  0  0  0  0  0  0  0  0
    4.1940    2.2690   18.6270 C   0  0  0  0  0  0  0  0  0  0  0  0
    4.6430    1.8710   17.3600 C   0  0  0  0  0  0  0  0  0  0  0  0
    5.5500    0.8850   17.1720 N   0  0  0  0  0  0  0  0  0  0  0  0
    6.0930    0.3330   18.2760 C   0  0  0  0  0  0  0  0  0  0  0  0
   10.0230    0.8330   23.3940 C   0  0  0  0  0  0  0  0  0  0  0  0
   11.4000    0.9460   23.6410 C   0  0  0  0  0  0  0  0  0  0  0  0
  1  2  1  0
  2  3  1  0
  3  4  1  0
  4 19  2  0
  4  5  1  0
  5  6  2  0
  6  7  1  0
  7  8  1  0
  7 18  2  0
  8  9  1  0
  9 10  2  0
  9 11  1  0
 11 12  1  0
 12 13  2  0
 12 17  1  0
 13 14  1  0
 14 15  2  0
 15 16  1  0
 16 17  2  0
 18 19  1  0
M  END
>  <original SMILES>  (305) 
NCCc1ccc(NC(=O)Nc2cccnc2)cc1

>  <AutoDock Predicted Affinity>  (305) 
-5.205263

>  <ref_pdb>  (305) 
x0434_0

>  <ref_mols>  (305) 
x0434_0

>  <creator>  (305) 
Will Poole

>  <energy minimised>  (305) 
True

$$$$
WPC0565_minimised.pdb
     RDKit          3D

 18 19  0  0  0  0  0  0  0  0999 V2000
   13.1850    2.3200   23.4380 N   0  0  0  0  0  0  0  0  0  0  0  0
   13.1720    0.8920   23.7420 C   0  0  0  0  0  0  0  0  0  0  0  0
   11.8190    0.3450   23.3690 C   0  0  0  0  0  0  0  0  0  0  0  0
   11.6620   -0.4370   22.2140 C   0  0  0  0  0  0  0  0  0  0  0  0
   10.3780   -0.8200   21.8090 C   0  0  0  0  0  0  0  0  0  0  0  0
    9.2520   -0.4040   22.5360 C   0  0  0  0  0  0  0  0  0  0  0  0
    7.9580   -0.5710   22.0050 N   0  0  0  0  0  0  0  0  0  0  0  0
    7.6000   -0.1950   20.7380 C   0  0  0  0  0  0  0  0  0  0  0  0
    8.3840    0.0870   19.8520 O   0  0  0  0  0  0  0  0  0  0  0  0
    6.2470   -0.1110   20.5750 N   0  0  0  0  0  0  0  0  0  0  0  0
    5.6170    0.5110   19.4730 C   0  0  0  0  0  0  0  0  0  0  0  0
    4.6600    1.5060   19.7070 C   0  0  0  0  0  0  0  0  0  0  0  0
    4.1650    2.2040   18.5990 C   0  0  0  0  0  0  0  0  0  0  0  0
    4.6470    1.9010   17.3170 C   0  0  0  0  0  0  0  0  0  0  0  0
    5.5370    0.9120   17.0790 N   0  0  0  0  0  0  0  0  0  0  0  0
    6.0180    0.2450   18.1470 C   0  0  0  0  0  0  0  0  0  0  0  0
    9.4130    0.3100   23.7310 C   0  0  0  0  0  0  0  0  0  0  0  0
   10.6980    0.6790   24.1520 C   0  0  0  0  0  0  0  0  0  0  0  0
  1  2  1  0
  2  3  1  0
  3 18  2  0
  3  4  1  0
  4  5  2  0
  5  6  1  0
  6  7  1  0
  6 17  2  0
  7  8  1  0
  8  9  2  0
  8 10  1  0
 10 11  1  0
 11 12  2  0
 11 16  1  0
 12 13  1  0
 13 14  2  0
 14 15  1  0
 15 16  2  0
 17 18  1  0
M  END
>  <original SMILES>  (306) 
NCc1ccc(NC(=O)Nc2cccnc2)cc1

>  <AutoDock Predicted Affinity>  (306) 
-4.99793

>  <ref_pdb>  (306) 
x0434_0

>  <ref_mols>  (306) 
x0434_0

>  <creator>  (306) 
Will Poole

>  <energy minimised>  (306) 
True

$$$$
WPC0515_minimised.pdb
     RDKit          3D

 20 21  0  0  0  0  0  0  0  0999 V2000
   11.8960    3.4100   22.2740 N   0  0  0  0  0  0  0  0  0  0  0  0
   13.2540    3.4890   22.3190 N   0  0  0  0  0  0  0  0  0  0  0  0
   14.0440    2.5210   22.6610 C   0  0  0  0  0  0  0  0  0  0  0  0
   13.7070    1.1150   23.1650 C   0  0  0  0  0  0  0  0  0  0  0  0
   12.2950    0.5920   22.9730 C   0  0  0  0  0  0  0  0  0  0  0  0
   12.0130   -0.2760   21.9090 C   0  0  0  0  0  0  0  0  0  0  0  0
   10.6940   -0.6850   21.6810 C   0  0  0  0  0  0  0  0  0  0  0  0
    9.6510   -0.2060   22.4870 C   0  0  0  0  0  0  0  0  0  0  0  0
    8.3120   -0.3950   22.0910 N   0  0  0  0  0  0  0  0  0  0  0  0
    7.8460   -0.0780   20.8420 C   0  0  0  0  0  0  0  0  0  0  0  0
    8.5640    0.2270   19.9080 O   0  0  0  0  0  0  0  0  0  0  0  0
    6.4830   -0.0800   20.7400 N   0  0  0  0  0  0  0  0  0  0  0  0
    5.7810    0.4660   19.6400 C   0  0  0  0  0  0  0  0  0  0  0  0
    4.8180    1.4550   19.8710 C   0  0  0  0  0  0  0  0  0  0  0  0
    4.2670    2.0990   18.7570 C   0  0  0  0  0  0  0  0  0  0  0  0
    4.7000    1.7500   17.4690 C   0  0  0  0  0  0  0  0  0  0  0  0
    5.5900    0.7590   17.2340 N   0  0  0  0  0  0  0  0  0  0  0  0
    6.1260    0.1460   18.3080 C   0  0  0  0  0  0  0  0  0  0  0  0
    9.9410    0.5860   23.6060 C   0  0  0  0  0  0  0  0  0  0  0  0
   11.2660    0.9690   23.8590 C   0  0  0  0  0  0  0  0  0  0  0  0
  1  2  1  0
  2  3  2  0
  3  4  1  0
  4  5  1  0
  5 20  2  0
  5  6  1  0
  6  7  2  0
  7  8  1  0
  8  9  1  0
  8 19  2  0
  9 10  1  0
 10 11  2  0
 10 12  1  0
 12 13  1  0
 13 14  2  0
 13 18  1  0
 14 15  1  0
 15 16  2  0
 16 17  1  0
 17 18  2  0
 19 20  1  0
M  END
>  <original SMILES>  (307) 
NN=CCc1ccc(NC(=O)Nc2cccnc2)cc1

>  <AutoDock Predicted Affinity>  (307) 
-5.63965

>  <ref_pdb>  (307) 
x0434_0

>  <ref_mols>  (307) 
x0434_0

>  <creator>  (307) 
Will Poole

>  <energy minimised>  (307) 
True

$$$$
WPC0949_minimised.pdb
     RDKit          3D

 21 22  0  0  0  0  0  0  0  0999 V2000
   11.2570    4.7940   22.9640 N   0  0  0  0  0  0  0  0  0  0  0  0
   11.6130    3.4450   23.2370 N   0  0  0  0  0  0  0  0  0  0  0  0
   12.9200    2.9910   23.3180 C   0  0  0  0  0  0  0  0  0  0  0  0
   13.8480    3.7780   23.2420 O   0  0  0  0  0  0  0  0  0  0  0  0
   13.1160    1.4820   23.5610 C   0  0  0  0  0  0  0  0  0  0  0  0
   11.8720    0.6510   23.2990 C   0  0  0  0  0  0  0  0  0  0  0  0
   11.7870   -0.1190   22.1310 C   0  0  0  0  0  0  0  0  0  0  0  0
   10.5650   -0.6990   21.7750 C   0  0  0  0  0  0  0  0  0  0  0  0
    9.4230   -0.4830   22.5610 C   0  0  0  0  0  0  0  0  0  0  0  0
    8.1390   -0.7470   22.0410 N   0  0  0  0  0  0  0  0  0  0  0  0
    7.7310   -0.3410   20.7960 C   0  0  0  0  0  0  0  0  0  0  0  0
    8.4800    0.0170   19.9060 O   0  0  0  0  0  0  0  0  0  0  0  0
    6.3730   -0.3050   20.6530 N   0  0  0  0  0  0  0  0  0  0  0  0
    5.7170    0.3350   19.5740 C   0  0  0  0  0  0  0  0  0  0  0  0
    4.7830    1.3440   19.8400 C   0  0  0  0  0  0  0  0  0  0  0  0
    4.2740    2.0640   18.7500 C   0  0  0  0  0  0  0  0  0  0  0  0
    4.7180    1.7660   17.4530 C   0  0  0  0  0  0  0  0  0  0  0  0
    5.5890    0.7670   17.1860 N   0  0  0  0  0  0  0  0  0  0  0  0
    6.0860    0.0820   18.2350 C   0  0  0  0  0  0  0  0  0  0  0  0
    9.5420    0.1660   23.7980 C   0  0  0  0  0  0  0  0  0  0  0  0
   10.7740    0.7150   24.1800 C   0  0  0  0  0  0  0  0  0  0  0  0
  1  2  1  0
  2  3  1  0
  3  4  2  0
  3  5  1  0
  5  6  1  0
  6 21  2  0
  6  7  1  0
  7  8  2  0
  8  9  1  0
  9 10  1  0
  9 20  2  0
 10 11  1  0
 11 12  2  0
 11 13  1  0
 13 14  1  0
 14 15  2  0
 14 19  1  0
 15 16  1  0
 16 17  2  0
 17 18  1  0
 18 19  2  0
 20 21  1  0
M  END
>  <original SMILES>  (308) 
NNC(=O)Cc1ccc(NC(=O)Nc2cccnc2)cc1

>  <AutoDock Predicted Affinity>  (308) 
-6.27533

>  <ref_pdb>  (308) 
x0434_0

>  <ref_mols>  (308) 
x0434_0

>  <creator>  (308) 
Will Poole

>  <energy minimised>  (308) 
True

$$$$
WPC0976_minimised.pdb
     RDKit          3D

 22 23  0  0  0  0  0  0  0  0999 V2000
   13.7370    5.6470   22.5910 N   0  0  0  0  0  0  0  0  0  0  0  0
   13.8700    4.2250   22.5900 N   0  0  0  0  0  0  0  0  0  0  0  0
   13.0630    3.3300   23.2660 C   0  0  0  0  0  0  0  0  0  0  0  0
   12.2200    3.6280   24.0920 O   0  0  0  0  0  0  0  0  0  0  0  0
   13.6570    2.1160   23.1340 O   0  0  0  0  0  0  0  0  0  0  0  0
   13.2120    0.9660   23.8600 C   0  0  0  0  0  0  0  0  0  0  0  0
   11.8460    0.5170   23.3950 C   0  0  0  0  0  0  0  0  0  0  0  0
   11.7220   -0.3080   22.2660 C   0  0  0  0  0  0  0  0  0  0  0  0
   10.4480   -0.6850   21.8200 C   0  0  0  0  0  0  0  0  0  0  0  0
    9.3030   -0.2240   22.4870 C   0  0  0  0  0  0  0  0  0  0  0  0
    8.0190   -0.4410   21.9530 N   0  0  0  0  0  0  0  0  0  0  0  0
    7.6640   -0.1500   20.6660 C   0  0  0  0  0  0  0  0  0  0  0  0
    8.4470    0.0620   19.7590 O   0  0  0  0  0  0  0  0  0  0  0  0
    6.3110   -0.0560   20.5120 N   0  0  0  0  0  0  0  0  0  0  0  0
    5.6720    0.5530   19.4100 C   0  0  0  0  0  0  0  0  0  0  0  0
    4.7090    1.5400   19.6480 C   0  0  0  0  0  0  0  0  0  0  0  0
    4.1990    2.2300   18.5430 C   0  0  0  0  0  0  0  0  0  0  0  0
    4.6780    1.9320   17.2590 C   0  0  0  0  0  0  0  0  0  0  0  0
    5.5740    0.9490   17.0160 N   0  0  0  0  0  0  0  0  0  0  0  0
    6.0650    0.2850   18.0820 C   0  0  0  0  0  0  0  0  0  0  0  0
    9.4280    0.5590   23.6420 C   0  0  0  0  0  0  0  0  0  0  0  0
   10.7000    0.9260   24.1010 C   0  0  0  0  0  0  0  0  0  0  0  0
  1  2  1  0
  2  3  1  0
  3  4  2  0
  3  5  1  0
  5  6  1  0
  6  7  1  0
  7 22  2  0
  7  8  1  0
  8  9  2  0
  9 10  1  0
 10 11  1  0
 10 21  2  0
 11 12  1  0
 12 13  2  0
 12 14  1  0
 14 15  1  0
 15 16  2  0
 15 20  1  0
 16 17  1  0
 17 18  2  0
 18 19  1  0
 19 20  2  0
 21 22  1  0
M  END
>  <original SMILES>  (309) 
NNC(=O)OCc1ccc(NC(=O)Nc2cccnc2)cc1

>  <AutoDock Predicted Affinity>  (309) 
-5.79549

>  <ref_pdb>  (309) 
x0434_0

>  <ref_mols>  (309) 
x0434_0

>  <creator>  (309) 
Will Poole

>  <energy minimised>  (309) 
True

$$$$
WPC1034_minimised.pdb
     RDKit          3D

 23 24  0  0  0  0  0  0  0  0999 V2000
   14.3330    6.1020   22.0400 N   0  0  0  0  0  0  0  0  0  0  0  0
   13.9910    4.7570   22.3250 N   0  0  0  0  0  0  0  0  0  0  0  0
   12.9040    4.4170   23.1060 C   0  0  0  0  0  0  0  0  0  0  0  0
   11.9260    5.5370   23.8490 S   0  0  0  0  0  0  0  0  0  0  0  0
   12.7250    3.0770   23.3150 N   0  0  0  0  0  0  0  0  0  0  0  0
   13.5980    2.0000   22.8310 C   0  0  0  0  0  0  0  0  0  0  0  0
   13.3070    0.6460   23.5090 C   0  0  0  0  0  0  0  0  0  0  0  0
   11.8850    0.1780   23.2670 C   0  0  0  0  0  0  0  0  0  0  0  0
   11.6170   -0.7190   22.2190 C   0  0  0  0  0  0  0  0  0  0  0  0
   10.2930   -1.0100   21.8740 C   0  0  0  0  0  0  0  0  0  0  0  0
    9.2360   -0.4040   22.5660 C   0  0  0  0  0  0  0  0  0  0  0  0
    7.9250   -0.4820   22.0610 N   0  0  0  0  0  0  0  0  0  0  0  0
    7.5900   -0.1390   20.7780 C   0  0  0  0  0  0  0  0  0  0  0  0
    8.3890    0.0520   19.8800 O   0  0  0  0  0  0  0  0  0  0  0  0
    6.2430    0.0150   20.6150 N   0  0  0  0  0  0  0  0  0  0  0  0
    5.6240    0.6070   19.4900 C   0  0  0  0  0  0  0  0  0  0  0  0
    4.6600    1.6010   19.6950 C   0  0  0  0  0  0  0  0  0  0  0  0
    4.1550    2.2580   18.5670 C   0  0  0  0  0  0  0  0  0  0  0  0
    4.6330    1.9180   17.2940 C   0  0  0  0  0  0  0  0  0  0  0  0
    5.5270    0.9240   17.0830 N   0  0  0  0  0  0  0  0  0  0  0  0
    6.0210    0.3000   18.1710 C   0  0  0  0  0  0  0  0  0  0  0  0
    9.4980    0.3990   23.6850 C   0  0  0  0  0  0  0  0  0  0  0  0
   10.8240    0.6810   24.0440 C   0  0  0  0  0  0  0  0  0  0  0  0
  1  2  1  0
  2  3  1  0
  3  4  2  0
  3  5  1  0
  5  6  1  0
  6  7  1  0
  7  8  1  0
  8 23  2  0
  8  9  1  0
  9 10  2  0
 10 11  1  0
 11 12  1  0
 11 22  2  0
 12 13  1  0
 13 14  2  0
 13 15  1  0
 15 16  1  0
 16 17  2  0
 16 21  1  0
 17 18  1  0
 18 19  2  0
 19 20  1  0
 20 21  2  0
 22 23  1  0
M  END
>  <original SMILES>  (310) 
NNC(=S)NCCc1ccc(NC(=O)Nc2cccnc2)cc1

>  <AutoDock Predicted Affinity>  (310) 
-6.40001

>  <ref_pdb>  (310) 
x0434_0

>  <ref_mols>  (310) 
x0434_0

>  <creator>  (310) 
Will Poole

>  <energy minimised>  (310) 
True

$$$$
WPC0820_minimised.pdb
     RDKit          3D

 22 23  0  0  0  0  0  0  0  0999 V2000
   14.1890    6.2610   22.0820 N   0  0  0  0  0  0  0  0  0  0  0  0
   13.7820    4.9030   22.1060 N   0  0  0  0  0  0  0  0  0  0  0  0
   13.0210    4.3870   23.1330 C   0  0  0  0  0  0  0  0  0  0  0  0
   12.4810    5.3390   24.3930 S   0  0  0  0  0  0  0  0  0  0  0  0
   12.8860    3.0250   23.0450 N   0  0  0  0  0  0  0  0  0  0  0  0
   12.2970    2.1640   24.0730 C   0  0  0  0  0  0  0  0  0  0  0  0
   11.1590    1.3210   23.5570 C   0  0  0  0  0  0  0  0  0  0  0  0
   11.3640    0.3760   22.5360 C   0  0  0  0  0  0  0  0  0  0  0  0
   10.2710   -0.3320   22.0160 C   0  0  0  0  0  0  0  0  0  0  0  0
    8.9830   -0.0930   22.5200 C   0  0  0  0  0  0  0  0  0  0  0  0
    7.8420   -0.6010   21.8770 N   0  0  0  0  0  0  0  0  0  0  0  0
    7.5600   -0.3280   20.5700 C   0  0  0  0  0  0  0  0  0  0  0  0
    8.3860   -0.0670   19.7160 O   0  0  0  0  0  0  0  0  0  0  0  0
    6.2140   -0.2690   20.3490 N   0  0  0  0  0  0  0  0  0  0  0  0
    5.6260    0.4290   19.2730 C   0  0  0  0  0  0  0  0  0  0  0  0
    4.6800    1.4250   19.5450 C   0  0  0  0  0  0  0  0  0  0  0  0
    4.2250    2.2000   18.4710 C   0  0  0  0  0  0  0  0  0  0  0  0
    4.7420    1.9750   17.1870 C   0  0  0  0  0  0  0  0  0  0  0  0
    5.6330    0.9950   16.9150 N   0  0  0  0  0  0  0  0  0  0  0  0
    6.0700    0.2490   17.9480 C   0  0  0  0  0  0  0  0  0  0  0  0
    8.7910    0.7970   23.5850 C   0  0  0  0  0  0  0  0  0  0  0  0
    9.8810    1.5020   24.1070 C   0  0  0  0  0  0  0  0  0  0  0  0
  1  2  1  0
  2  3  1  0
  3  4  2  0
  3  5  1  0
  5  6  1  0
  6  7  1  0
  7 22  2  0
  7  8  1  0
  8  9  2  0
  9 10  1  0
 10 11  1  0
 10 21  2  0
 11 12  1  0
 12 13  2  0
 12 14  1  0
 14 15  1  0
 15 16  2  0
 15 20  1  0
 16 17  1  0
 17 18  2  0
 18 19  1  0
 19 20  2  0
 21 22  1  0
M  END
>  <original SMILES>  (311) 
NNC(=S)NCc1ccc(NC(=O)Nc2cccnc2)cc1

>  <AutoDock Predicted Affinity>  (311) 
-5.64992

>  <ref_pdb>  (311) 
x0434_0

>  <ref_mols>  (311) 
x0434_0

>  <creator>  (311) 
Will Poole

>  <energy minimised>  (311) 
True

$$$$
WPC0405_minimised.pdb
     RDKit          3D

 19 20  0  0  0  0  0  0  0  0999 V2000
   14.1240    4.1850   23.2730 N   0  0  0  0  0  0  0  0  0  0  0  0
   12.9430    3.3490   23.3350 O   0  0  0  0  0  0  0  0  0  0  0  0
   13.2340    1.9290   23.3700 C   0  0  0  0  0  0  0  0  0  0  0  0
   11.9480    1.1620   23.1450 C   0  0  0  0  0  0  0  0  0  0  0  0
   11.8820    0.1690   22.1540 C   0  0  0  0  0  0  0  0  0  0  0  0
   10.6550   -0.4410   21.8590 C   0  0  0  0  0  0  0  0  0  0  0  0
    9.4930   -0.0510   22.5420 C   0  0  0  0  0  0  0  0  0  0  0  0
    8.2220   -0.4440   22.0800 N   0  0  0  0  0  0  0  0  0  0  0  0
    7.7950   -0.2100   20.8010 C   0  0  0  0  0  0  0  0  0  0  0  0
    8.5300    0.0360   19.8630 O   0  0  0  0  0  0  0  0  0  0  0  0
    6.4330   -0.1960   20.6830 N   0  0  0  0  0  0  0  0  0  0  0  0
    5.7520    0.3900   19.5890 C   0  0  0  0  0  0  0  0  0  0  0  0
    4.8150    1.4000   19.8380 C   0  0  0  0  0  0  0  0  0  0  0  0
    4.2830    2.0800   18.7350 C   0  0  0  0  0  0  0  0  0  0  0  0
    4.7070    1.7420   17.4420 C   0  0  0  0  0  0  0  0  0  0  0  0
    5.5780    0.7390   17.1920 N   0  0  0  0  0  0  0  0  0  0  0  0
    6.0990    0.0920   18.2540 C   0  0  0  0  0  0  0  0  0  0  0  0
    9.5740    0.8750   23.5910 C   0  0  0  0  0  0  0  0  0  0  0  0
   10.8020    1.4770   23.8980 C   0  0  0  0  0  0  0  0  0  0  0  0
  1  2  1  0
  2  3  1  0
  3  4  1  0
  4 19  2  0
  4  5  1  0
  5  6  2  0
  6  7  1  0
  7  8  1  0
  7 18  2  0
  8  9  1  0
  9 10  2  0
  9 11  1  0
 11 12  1  0
 12 13  2  0
 12 17  1  0
 13 14  1  0
 14 15  2  0
 15 16  1  0
 16 17  2  0
 18 19  1  0
M  END
>  <original SMILES>  (312) 
NOCc1ccc(NC(=O)Nc2cccnc2)cc1

>  <AutoDock Predicted Affinity>  (312) 
-5.40676

>  <ref_pdb>  (312) 
x0434_0

>  <ref_mols>  (312) 
x0434_0

>  <creator>  (312) 
Will Poole

>  <energy minimised>  (312) 
True

$$$$
WPC0692_minimised.pdb
     RDKit          3D

 22 23  0  0  0  0  0  0  0  0999 V2000
   14.1900    4.6290   23.4650 N   0  0  0  0  0  0  0  0  0  0  0  0
   13.0500    4.0280   22.5610 S   0  0  0  0  0  0  0  0  0  0  0  0
   12.1850    4.1340   23.7070 O   0  0  0  0  0  0  0  0  0  0  0  0
   13.3140    5.0990   21.6370 O   0  0  0  0  0  0  0  0  0  0  0  0
   13.8720    2.4640   22.2500 C   0  0  0  0  0  0  0  0  0  0  0  0
   13.5380    1.2940   23.1990 C   0  0  0  0  0  0  0  0  0  0  0  0
   12.1470    0.7470   22.9770 C   0  0  0  0  0  0  0  0  0  0  0  0
   11.9280   -0.2170   21.9800 C   0  0  0  0  0  0  0  0  0  0  0  0
   10.6250   -0.6580   21.7170 C   0  0  0  0  0  0  0  0  0  0  0  0
    9.5410   -0.1250   22.4300 C   0  0  0  0  0  0  0  0  0  0  0  0
    8.2210   -0.3780   22.0080 N   0  0  0  0  0  0  0  0  0  0  0  0
    7.7830   -0.1220   20.7390 C   0  0  0  0  0  0  0  0  0  0  0  0
    8.5180    0.1210   19.8000 O   0  0  0  0  0  0  0  0  0  0  0  0
    6.4210   -0.0950   20.6290 N   0  0  0  0  0  0  0  0  0  0  0  0
    5.7340    0.4770   19.5320 C   0  0  0  0  0  0  0  0  0  0  0  0
    4.7790    1.4700   19.7770 C   0  0  0  0  0  0  0  0  0  0  0  0
    4.2440    2.1450   18.6730 C   0  0  0  0  0  0  0  0  0  0  0  0
    4.6900    1.8240   17.3830 C   0  0  0  0  0  0  0  0  0  0  0  0
    5.5730    0.8310   17.1340 N   0  0  0  0  0  0  0  0  0  0  0  0
    6.0920    0.1860   18.1980 C   0  0  0  0  0  0  0  0  0  0  0  0
    9.7660    0.7800   23.4750 C   0  0  0  0  0  0  0  0  0  0  0  0
   11.0700    1.2080   23.7560 C   0  0  0  0  0  0  0  0  0  0  0  0
  1  2  1  0
  2  3  2  0
  2  4  2  0
  2  5  1  0
  5  6  1  0
  6  7  1  0
  7 22  2  0
  7  8  1  0
  8  9  2  0
  9 10  1  0
 10 11  1  0
 10 21  2  0
 11 12  1  0
 12 13  2  0
 12 14  1  0
 14 15  1  0
 15 16  2  0
 15 20  1  0
 16 17  1  0
 17 18  2  0
 18 19  1  0
 19 20  2  0
 21 22  1  0
M  END
>  <original SMILES>  (313) 
NS(=O)(=O)CCc1ccc(NC(=O)Nc2cccnc2)cc1

>  <AutoDock Predicted Affinity>  (313) 
-6.56231

>  <ref_pdb>  (313) 
x0434_0

>  <ref_mols>  (313) 
x0434_0

>  <creator>  (313) 
Will Poole

>  <energy minimised>  (313) 
True

$$$$
WPC0944_minimised.pdb
     RDKit          3D

 24 25  0  0  0  0  0  0  0  0999 V2000
   12.8300    5.5990   25.4090 N   0  0  0  0  0  0  0  0  0  0  0  0
   11.8240    5.6200   24.2230 S   0  0  0  0  0  0  0  0  0  0  0  0
   10.6660    5.2690   24.9950 O   0  0  0  0  0  0  0  0  0  0  0  0
   12.3940    6.9290   24.1470 O   0  0  0  0  0  0  0  0  0  0  0  0
   12.6790    4.4160   23.6260 O   0  0  0  0  0  0  0  0  0  0  0  0
   12.0740    3.1210   23.7620 C   0  0  0  0  0  0  0  0  0  0  0  0
   13.0900    2.0740   23.2650 C   0  0  0  0  0  0  0  0  0  0  0  0
   12.9480    0.6910   23.9260 C   0  0  0  0  0  0  0  0  0  0  0  0
   11.5960    0.1000   23.5950 C   0  0  0  0  0  0  0  0  0  0  0  0
   11.4390   -0.6070   22.3930 C   0  0  0  0  0  0  0  0  0  0  0  0
   10.1570   -0.9310   21.9430 C   0  0  0  0  0  0  0  0  0  0  0  0
    9.0310   -0.5200   22.6710 C   0  0  0  0  0  0  0  0  0  0  0  0
    7.7550   -0.5610   22.0760 N   0  0  0  0  0  0  0  0  0  0  0  0
    7.4850   -0.1100   20.8100 C   0  0  0  0  0  0  0  0  0  0  0  0
    8.3240    0.1730   19.9740 O   0  0  0  0  0  0  0  0  0  0  0  0
    6.1460    0.0340   20.5840 N   0  0  0  0  0  0  0  0  0  0  0  0
    5.5830    0.6610   19.4500 C   0  0  0  0  0  0  0  0  0  0  0  0
    4.6130    1.6550   19.6300 C   0  0  0  0  0  0  0  0  0  0  0  0
    4.1680    2.3390   18.4920 C   0  0  0  0  0  0  0  0  0  0  0  0
    4.7100    2.0260   17.2370 C   0  0  0  0  0  0  0  0  0  0  0  0
    5.6160    1.0390   17.0500 N   0  0  0  0  0  0  0  0  0  0  0  0
    6.0480    0.3860   18.1460 C   0  0  0  0  0  0  0  0  0  0  0  0
    9.1880    0.0820   23.9280 C   0  0  0  0  0  0  0  0  0  0  0  0
   10.4760    0.3810   24.4000 C   0  0  0  0  0  0  0  0  0  0  0  0
  1  2  1  0
  2  3  2  0
  2  4  2  0
  2  5  1  0
  5  6  1  0
  6  7  1  0
  7  8  1  0
  8  9  1  0
  9 24  2  0
  9 10  1  0
 10 11  2  0
 11 12  1  0
 12 13  1  0
 12 23  2  0
 13 14  1  0
 14 15  2  0
 14 16  1  0
 16 17  1  0
 17 18  2  0
 17 22  1  0
 18 19  1  0
 19 20  2  0
 20 21  1  0
 21 22  2  0
 23 24  1  0
M  END
>  <original SMILES>  (314) 
NS(=O)(=O)OCCCc1ccc(NC(=O)Nc2cccnc2)cc1

>  <AutoDock Predicted Affinity>  (314) 
-5.47295

>  <ref_pdb>  (314) 
x0434_0

>  <ref_mols>  (314) 
x0434_0

>  <creator>  (314) 
Will Poole

>  <energy minimised>  (314) 
True

$$$$
WPC0500_minimised.pdb
     RDKit          3D

 17 18  0  0  0  0  0  0  0  0999 V2000
   14.2330    0.8700   22.7900 N   0  0  0  0  0  0  0  0  0  0  0  0
   12.8890    0.5680   22.7310 C   0  0  0  0  0  0  0  0  0  0  0  0
   12.4440   -0.4980   21.9390 C   0  0  0  0  0  0  0  0  0  0  0  0
   11.0680   -0.7560   21.8180 C   0  0  0  0  0  0  0  0  0  0  0  0
   10.1340    0.0580   22.4800 C   0  0  0  0  0  0  0  0  0  0  0  0
    8.7490   -0.0990   22.2320 N   0  0  0  0  0  0  0  0  0  0  0  0
    8.1730    0.0660   20.9990 C   0  0  0  0  0  0  0  0  0  0  0  0
    8.8140    0.2420   19.9850 O   0  0  0  0  0  0  0  0  0  0  0  0
    6.8030    0.0670   20.9870 N   0  0  0  0  0  0  0  0  0  0  0  0
    6.0280    0.4990   19.8790 C   0  0  0  0  0  0  0  0  0  0  0  0
    5.0560    1.4870   20.0770 C   0  0  0  0  0  0  0  0  0  0  0  0
    4.4330    2.0270   18.9440 C   0  0  0  0  0  0  0  0  0  0  0  0
    4.8060    1.5800   17.6680 C   0  0  0  0  0  0  0  0  0  0  0  0
    5.6980    0.5840   17.4660 N   0  0  0  0  0  0  0  0  0  0  0  0
    6.3040    0.0720   18.5590 C   0  0  0  0  0  0  0  0  0  0  0  0
   10.5830    1.1060   23.2980 C   0  0  0  0  0  0  0  0  0  0  0  0
   11.9600    1.3590   23.4200 C   0  0  0  0  0  0  0  0  0  0  0  0
  1  2  1  0
  2  3  2  0
  2 17  1  0
  3  4  1  0
  4  5  2  0
  5 16  1  0
  5  6  1  0
  6  7  1  0
  7  8  2  0
  7  9  1  0
  9 10  1  0
 10 11  2  0
 10 15  1  0
 11 12  1  0
 12 13  2  0
 13 14  1  0
 14 15  2  0
 16 17  2  0
M  END
>  <original SMILES>  (315) 
Nc1ccc(NC(=O)Nc2cccnc2)cc1

>  <AutoDock Predicted Affinity>  (315) 
-5.47854

>  <ref_pdb>  (315) 
x0434_0

>  <ref_mols>  (315) 
x0434_0

>  <creator>  (315) 
Will Poole

>  <energy minimised>  (315) 
True

$$$$
WPC0985_minimised.pdb
     RDKit          3D

 23 25  0  0  0  0  0  0  0  0999 V2000
   11.1690    2.8990   22.5520 N   0  0  0  0  0  0  0  0  0  0  0  0
   12.5310    2.8130   22.6260 C   0  0  0  0  0  0  0  0  0  0  0  0
   13.4290    3.7390   22.2270 C   0  0  0  0  0  0  0  0  0  0  0  0
   14.7140    3.1610   22.3430 C   0  0  0  0  0  0  0  0  0  0  0  0
   14.6180    1.9260   22.8040 N   0  0  0  0  0  0  0  0  0  0  0  0
   13.2890    1.7100   23.0110 N   0  0  0  0  0  0  0  0  0  0  0  0
   12.9110    0.4280   23.6110 C   0  0  0  0  0  0  0  0  0  0  0  0
   11.5000   -0.0280   23.3230 C   0  0  0  0  0  0  0  0  0  0  0  0
   11.2590   -0.7990   22.1760 C   0  0  0  0  0  0  0  0  0  0  0  0
    9.9430   -1.0600   21.7880 C   0  0  0  0  0  0  0  0  0  0  0  0
    8.8750   -0.5190   22.5170 C   0  0  0  0  0  0  0  0  0  0  0  0
    7.5880   -0.5040   21.9500 N   0  0  0  0  0  0  0  0  0  0  0  0
    7.3340   -0.0570   20.6810 C   0  0  0  0  0  0  0  0  0  0  0  0
    8.1910    0.2010   19.8540 O   0  0  0  0  0  0  0  0  0  0  0  0
    6.0000    0.1080   20.4420 N   0  0  0  0  0  0  0  0  0  0  0  0
    5.4550    0.7390   19.3010 C   0  0  0  0  0  0  0  0  0  0  0  0
    4.4670    1.7150   19.4680 C   0  0  0  0  0  0  0  0  0  0  0  0
    4.0490    2.4150   18.3300 C   0  0  0  0  0  0  0  0  0  0  0  0
    4.6430    2.1420   17.0910 C   0  0  0  0  0  0  0  0  0  0  0  0
    5.5610    1.1640   16.9120 N   0  0  0  0  0  0  0  0  0  0  0  0
    5.9610    0.4900   18.0070 C   0  0  0  0  0  0  0  0  0  0  0  0
    9.1120    0.1600   23.7200 C   0  0  0  0  0  0  0  0  0  0  0  0
   10.4310    0.3910   24.1370 C   0  0  0  0  0  0  0  0  0  0  0  0
  1  2  1  0
  2  3  2  0
  2  6  1  0
  3  4  1  0
  4  5  2  0
  5  6  1  0
  6  7  1  0
  7  8  1  0
  8 23  1  0
  8  9  2  0
  9 10  1  0
 10 11  2  0
 11 12  1  0
 11 22  1  0
 12 13  1  0
 13 14  2  0
 13 15  1  0
 15 16  1  0
 16 17  2  0
 16 21  1  0
 17 18  1  0
 18 19  2  0
 19 20  1  0
 20 21  2  0
 22 23  2  0
M  END
>  <original SMILES>  (316) 
Nc1ccnn1Cc1ccc(NC(=O)Nc2cccnc2)cc1

>  <AutoDock Predicted Affinity>  (316) 
-6.26666

>  <ref_pdb>  (316) 
x0434_0

>  <ref_mols>  (316) 
x0434_0

>  <creator>  (316) 
Will Poole

>  <energy minimised>  (316) 
True

$$$$
WPC0817_minimised.pdb
     RDKit          3D

 24 26  0  0  0  0  0  0  0  0999 V2000
   11.1190    5.2570   23.0320 N   0  0  0  0  0  0  0  0  0  0  0  0
   12.3090    4.6450   22.9610 C   0  0  0  0  0  0  0  0  0  0  0  0
   13.5280    5.2430   23.0900 N   0  0  0  0  0  0  0  0  0  0  0  0
   14.4870    4.3010   22.8930 N   0  0  0  0  0  0  0  0  0  0  0  0
   13.7580    3.2170   22.6710 C   0  0  0  0  0  0  0  0  0  0  0  0
   14.6050    1.7210   22.3280 S   0  0  0  0  0  0  0  0  0  0  0  0
   13.7890    0.4390   23.3630 C   0  0  0  0  0  0  0  0  0  0  0  0
   12.3360    0.1680   23.0310 C   0  0  0  0  0  0  0  0  0  0  0  0
   11.9990   -0.7140   21.9930 C   0  0  0  0  0  0  0  0  0  0  0  0
   10.6490   -0.9640   21.7060 C   0  0  0  0  0  0  0  0  0  0  0  0
    9.6360   -0.3200   22.4300 C   0  0  0  0  0  0  0  0  0  0  0  0
    8.2920   -0.4270   22.0230 N   0  0  0  0  0  0  0  0  0  0  0  0
    7.8500   -0.1270   20.7640 C   0  0  0  0  0  0  0  0  0  0  0  0
    8.5830    0.1000   19.8210 O   0  0  0  0  0  0  0  0  0  0  0  0
    6.4880   -0.0550   20.6700 N   0  0  0  0  0  0  0  0  0  0  0  0
    5.7940    0.5030   19.5710 C   0  0  0  0  0  0  0  0  0  0  0  0
    4.8220    1.4820   19.8110 C   0  0  0  0  0  0  0  0  0  0  0  0
    4.2630    2.1300   18.7030 C   0  0  0  0  0  0  0  0  0  0  0  0
    4.7020    1.7980   17.4130 C   0  0  0  0  0  0  0  0  0  0  0  0
    5.5980    0.8170   17.1680 N   0  0  0  0  0  0  0  0  0  0  0  0
    6.1410    0.1980   18.2370 C   0  0  0  0  0  0  0  0  0  0  0  0
    9.9680    0.5200   23.4980 C   0  0  0  0  0  0  0  0  0  0  0  0
   11.3150    0.7540   23.8030 C   0  0  0  0  0  0  0  0  0  0  0  0
   12.4030    3.3770   22.7510 N   0  0  0  0  0  0  0  0  0  0  0  0
  1  2  1  0
  2 24  2  0
  2  3  1  0
  3  4  1  0
  4  5  2  0
  5  6  1  0
  5 24  1  0
  6  7  1  0
  7  8  1  0
  8 23  1  0
  8  9  2  0
  9 10  1  0
 10 11  2  0
 11 12  1  0
 11 22  1  0
 12 13  1  0
 13 14  2  0
 13 15  1  0
 15 16  1  0
 16 17  2  0
 16 21  1  0
 17 18  1  0
 18 19  2  0
 19 20  1  0
 20 21  2  0
 22 23  2  0
M  END
>  <original SMILES>  (317) 
Nc1nc(SCc2ccc(NC(=O)Nc3cccnc3)cc2)n[nH]1

>  <AutoDock Predicted Affinity>  (317) 
-6.800085

>  <ref_pdb>  (317) 
x0434_0

>  <ref_mols>  (317) 
x0434_0

>  <creator>  (317) 
Will Poole

>  <energy minimised>  (317) 
True

$$$$
WPC1037_minimised.pdb
     RDKit          3D

 24 26  0  0  0  0  0  0  0  0999 V2000
   12.4940    6.8540   24.9180 N   0  0  0  0  0  0  0  0  0  0  0  0
   12.1320    5.7010   24.3250 C   0  0  0  0  0  0  0  0  0  0  0  0
   13.0990    5.0510   23.7630 N   0  0  0  0  0  0  0  0  0  0  0  0
   12.5840    3.8160   23.4610 C   0  0  0  0  0  0  0  0  0  0  0  0
   13.5800    2.5560   22.7450 S   0  0  0  0  0  0  0  0  0  0  0  0
   13.2330    0.9910   23.6640 C   0  0  0  0  0  0  0  0  0  0  0  0
   11.9060    0.3670   23.2980 C   0  0  0  0  0  0  0  0  0  0  0  0
   11.7850   -0.3570   22.1040 C   0  0  0  0  0  0  0  0  0  0  0  0
   10.5280   -0.8300   21.7080 C   0  0  0  0  0  0  0  0  0  0  0  0
    9.3890   -0.5500   22.4780 C   0  0  0  0  0  0  0  0  0  0  0  0
    8.0960   -0.7640   21.9590 N   0  0  0  0  0  0  0  0  0  0  0  0
    7.7040   -0.3890   20.7010 C   0  0  0  0  0  0  0  0  0  0  0  0
    8.4600   -0.1210   19.7870 O   0  0  0  0  0  0  0  0  0  0  0  0
    6.3470   -0.2790   20.5790 N   0  0  0  0  0  0  0  0  0  0  0  0
    5.6990    0.3710   19.5030 C   0  0  0  0  0  0  0  0  0  0  0  0
    4.7680    1.3810   19.7760 C   0  0  0  0  0  0  0  0  0  0  0  0
    4.2580    2.1060   18.6920 C   0  0  0  0  0  0  0  0  0  0  0  0
    4.7020    1.8170   17.3940 C   0  0  0  0  0  0  0  0  0  0  0  0
    5.5660    0.8150   17.1170 N   0  0  0  0  0  0  0  0  0  0  0  0
    6.0620    0.1220   18.1610 C   0  0  0  0  0  0  0  0  0  0  0  0
    9.5260    0.0890   23.7170 C   0  0  0  0  0  0  0  0  0  0  0  0
   10.7880    0.5320   24.1360 C   0  0  0  0  0  0  0  0  0  0  0  0
   11.3820    3.4920   23.9030 N   0  0  0  0  0  0  0  0  0  0  0  0
   10.6760    4.7840   24.5890 S   0  0  0  0  0  0  0  0  0  0  0  0
  1  2  1  0
  2  3  2  0
  2 24  1  0
  3  4  1  0
  4 23  2  0
  4  5  1  0
  5  6  1  0
  6  7  1  0
  7 22  1  0
  7  8  2  0
  8  9  1  0
  9 10  2  0
 10 11  1  0
 10 21  1  0
 11 12  1  0
 12 13  2  0
 12 14  1  0
 14 15  1  0
 15 16  2  0
 15 20  1  0
 16 17  1  0
 17 18  2  0
 18 19  1  0
 19 20  2  0
 21 22  2  0
 23 24  1  0
M  END
>  <original SMILES>  (318) 
Nc1nc(SCc2ccc(NC(=O)Nc3cccnc3)cc2)ns1

>  <AutoDock Predicted Affinity>  (318) 
-6.096893

>  <ref_pdb>  (318) 
x0434_0

>  <ref_mols>  (318) 
x0434_0

>  <creator>  (318) 
Will Poole

>  <energy minimised>  (318) 
True

$$$$
WPC0678_minimised.pdb
     RDKit          3D

 24 26  0  0  0  0  0  0  0  0999 V2000
   10.5440    5.4960   22.9180 N   0  0  0  0  0  0  0  0  0  0  0  0
   11.6390    4.6980   22.8820 C   0  0  0  0  0  0  0  0  0  0  0  0
   12.7720    5.0900   23.4170 N   0  0  0  0  0  0  0  0  0  0  0  0
   13.7560    4.1450   23.2480 N   0  0  0  0  0  0  0  0  0  0  0  0
   13.3110    3.0710   22.6160 C   0  0  0  0  0  0  0  0  0  0  0  0
   14.1400    1.8310   22.3950 C   0  0  0  0  0  0  0  0  0  0  0  0
   13.7700    0.6620   23.3360 C   0  0  0  0  0  0  0  0  0  0  0  0
   12.3370    0.2020   23.1500 C   0  0  0  0  0  0  0  0  0  0  0  0
   12.0080   -0.6230   22.0640 C   0  0  0  0  0  0  0  0  0  0  0  0
   10.6640   -0.9130   21.7970 C   0  0  0  0  0  0  0  0  0  0  0  0
    9.6470   -0.3620   22.5890 C   0  0  0  0  0  0  0  0  0  0  0  0
    8.3070   -0.4400   22.1600 N   0  0  0  0  0  0  0  0  0  0  0  0
    7.8820   -0.0510   20.9170 C   0  0  0  0  0  0  0  0  0  0  0  0
    8.6240    0.2760   20.0100 O   0  0  0  0  0  0  0  0  0  0  0  0
    6.5220   -0.0330   20.7860 N   0  0  0  0  0  0  0  0  0  0  0  0
    5.8330    0.4980   19.6700 C   0  0  0  0  0  0  0  0  0  0  0  0
    4.8440    1.4660   19.8790 C   0  0  0  0  0  0  0  0  0  0  0  0
    4.2780    2.0710   18.7500 C   0  0  0  0  0  0  0  0  0  0  0  0
    4.7200    1.7010   17.4710 C   0  0  0  0  0  0  0  0  0  0  0  0
    5.6380    0.7310   17.2570 N   0  0  0  0  0  0  0  0  0  0  0  0
    6.1940    0.1610   18.3460 C   0  0  0  0  0  0  0  0  0  0  0  0
    9.9750    0.3850   23.7270 C   0  0  0  0  0  0  0  0  0  0  0  0
   11.3210    0.6590   24.0130 C   0  0  0  0  0  0  0  0  0  0  0  0
   11.6740    3.1950   22.0300 S   0  0  0  0  0  0  0  0  0  0  0  0
  1  2  1  0
  2 24  1  0
  2  3  2  0
  3  4  1  0
  4  5  2  0
  5  6  1  0
  5 24  1  0
  6  7  1  0
  7  8  1  0
  8 23  1  0
  8  9  2  0
  9 10  1  0
 10 11  2  0
 11 12  1  0
 11 22  1  0
 12 13  1  0
 13 14  2  0
 13 15  1  0
 15 16  1  0
 16 17  2  0
 16 21  1  0
 17 18  1  0
 18 19  2  0
 19 20  1  0
 20 21  2  0
 22 23  2  0
M  END
>  <original SMILES>  (319) 
Nc1nnc(CCc2ccc(NC(=O)Nc3cccnc3)cc2)s1

>  <AutoDock Predicted Affinity>  (319) 
-6.75961

>  <ref_pdb>  (319) 
x0434_0

>  <ref_mols>  (319) 
x0434_0

>  <creator>  (319) 
Will Poole

>  <energy minimised>  (319) 
True

$$$$
WPC0378_minimised.pdb
     RDKit          3D

 24 26  0  0  0  0  0  0  0  0999 V2000
   12.6080    6.7030   24.5030 N   0  0  0  0  0  0  0  0  0  0  0  0
   12.5380    5.5180   23.8530 C   0  0  0  0  0  0  0  0  0  0  0  0
   11.6930    4.6170   24.2820 N   0  0  0  0  0  0  0  0  0  0  0  0
   11.9610    3.3890   23.7320 N   0  0  0  0  0  0  0  0  0  0  0  0
   13.0350    3.4020   22.9600 C   0  0  0  0  0  0  0  0  0  0  0  0
   13.6690    2.1690   22.3730 C   0  0  0  0  0  0  0  0  0  0  0  0
   13.6940    0.7030   23.4890 S   0  0  0  0  0  0  0  0  0  0  0  0
   12.0540    0.0750   23.2470 C   0  0  0  0  0  0  0  0  0  0  0  0
   11.8090   -0.7690   22.1560 C   0  0  0  0  0  0  0  0  0  0  0  0
   10.4910   -1.1210   21.8380 C   0  0  0  0  0  0  0  0  0  0  0  0
    9.4230   -0.6070   22.5890 C   0  0  0  0  0  0  0  0  0  0  0  0
    8.1020   -0.7210   22.1100 N   0  0  0  0  0  0  0  0  0  0  0  0
    7.7250   -0.3530   20.8450 C   0  0  0  0  0  0  0  0  0  0  0  0
    8.5010   -0.1120   19.9390 O   0  0  0  0  0  0  0  0  0  0  0  0
    6.3710   -0.2280   20.7030 N   0  0  0  0  0  0  0  0  0  0  0  0
    5.7420    0.3940   19.5970 C   0  0  0  0  0  0  0  0  0  0  0  0
    4.8000    1.4020   19.8320 C   0  0  0  0  0  0  0  0  0  0  0  0
    4.3050    2.1020   18.7240 C   0  0  0  0  0  0  0  0  0  0  0  0
    4.7740    1.7890   17.4400 C   0  0  0  0  0  0  0  0  0  0  0  0
    5.6460    0.7840   17.1990 N   0  0  0  0  0  0  0  0  0  0  0  0
    6.1290    0.1170   18.2670 C   0  0  0  0  0  0  0  0  0  0  0  0
    9.6770    0.1580   23.7360 C   0  0  0  0  0  0  0  0  0  0  0  0
   10.9980    0.4880   24.0740 C   0  0  0  0  0  0  0  0  0  0  0  0
   13.7590    4.9720   22.7440 S   0  0  0  0  0  0  0  0  0  0  0  0
  1  2  1  0
  2 24  1  0
  2  3  2  0
  3  4  1  0
  4  5  2  0
  5  6  1  0
  5 24  1  0
  6  7  1  0
  7  8  1  0
  8 23  1  0
  8  9  2  0
  9 10  1  0
 10 11  2  0
 11 12  1  0
 11 22  1  0
 12 13  1  0
 13 14  2  0
 13 15  1  0
 15 16  1  0
 16 17  2  0
 16 21  1  0
 17 18  1  0
 18 19  2  0
 19 20  1  0
 20 21  2  0
 22 23  2  0
M  END
>  <original SMILES>  (320) 
Nc1nnc(CSc2ccc(NC(=O)Nc3cccnc3)cc2)s1

>  <AutoDock Predicted Affinity>  (320) 
-5.979175

>  <ref_pdb>  (320) 
x0434_0

>  <ref_mols>  (320) 
x0434_0

>  <creator>  (320) 
Will Poole

>  <energy minimised>  (320) 
True

$$$$
WPC0992_minimised.pdb
     RDKit          3D

 24 26  0  0  0  0  0  0  0  0999 V2000
   12.5170    6.7570   24.5660 N   0  0  0  0  0  0  0  0  0  0  0  0
   12.4160    5.5750   23.9080 C   0  0  0  0  0  0  0  0  0  0  0  0
   11.7250    4.6140   24.4700 N   0  0  0  0  0  0  0  0  0  0  0  0
   12.0390    3.3940   23.9270 N   0  0  0  0  0  0  0  0  0  0  0  0
   12.9420    3.5050   22.9690 C   0  0  0  0  0  0  0  0  0  0  0  0
   13.8230    2.0680   22.4560 S   0  0  0  0  0  0  0  0  0  0  0  0
   13.3130    0.7170   23.5990 C   0  0  0  0  0  0  0  0  0  0  0  0
   11.9290    0.1990   23.2760 C   0  0  0  0  0  0  0  0  0  0  0  0
   11.7360   -0.6000   22.1380 C   0  0  0  0  0  0  0  0  0  0  0  0
   10.4400   -0.9760   21.7670 C   0  0  0  0  0  0  0  0  0  0  0  0
    9.3340   -0.5290   22.5050 C   0  0  0  0  0  0  0  0  0  0  0  0
    8.0280   -0.6770   21.9980 N   0  0  0  0  0  0  0  0  0  0  0  0
    7.6600   -0.3250   20.7270 C   0  0  0  0  0  0  0  0  0  0  0  0
    8.4370   -0.1060   19.8160 O   0  0  0  0  0  0  0  0  0  0  0  0
    6.3070   -0.1850   20.5880 N   0  0  0  0  0  0  0  0  0  0  0  0
    5.6790    0.4520   19.4920 C   0  0  0  0  0  0  0  0  0  0  0  0
    4.7370    1.4580   19.7410 C   0  0  0  0  0  0  0  0  0  0  0  0
    4.2430    2.1720   18.6410 C   0  0  0  0  0  0  0  0  0  0  0  0
    4.7150    1.8770   17.3540 C   0  0  0  0  0  0  0  0  0  0  0  0
    5.5870    0.8760   17.1010 N   0  0  0  0  0  0  0  0  0  0  0  0
    6.0670    0.1930   18.1600 C   0  0  0  0  0  0  0  0  0  0  0  0
    9.5300    0.1980   23.6870 C   0  0  0  0  0  0  0  0  0  0  0  0
   10.8280    0.5480   24.0810 C   0  0  0  0  0  0  0  0  0  0  0  0
   13.4960    5.1180   22.6250 S   0  0  0  0  0  0  0  0  0  0  0  0
  1  2  1  0
  2 24  1  0
  2  3  2  0
  3  4  1  0
  4  5  2  0
  5  6  1  0
  5 24  1  0
  6  7  1  0
  7  8  1  0
  8 23  1  0
  8  9  2  0
  9 10  1  0
 10 11  2  0
 11 12  1  0
 11 22  1  0
 12 13  1  0
 13 14  2  0
 13 15  1  0
 15 16  1  0
 16 17  2  0
 16 21  1  0
 17 18  1  0
 18 19  2  0
 19 20  1  0
 20 21  2  0
 22 23  2  0
M  END
>  <original SMILES>  (321) 
Nc1nnc(SCc2ccc(NC(=O)Nc3cccnc3)cc2)s1

>  <AutoDock Predicted Affinity>  (321) 
-5.925795

>  <ref_pdb>  (321) 
x0434_0

>  <ref_mols>  (321) 
x0434_0

>  <creator>  (321) 
Will Poole

>  <energy minimised>  (321) 
True

$$$$
WPC0464_minimised.pdb
     RDKit          3D

 24 26  0  0  0  0  0  0  0  0999 V2000
   15.0440    3.0510   22.4960 N   0  0  0  0  0  0  0  0  0  0  0  0
   13.6810    3.4140   22.6490 N   0  0  0  0  0  0  0  0  0  0  0  0
   12.7090    2.5660   23.1500 C   0  0  0  0  0  0  0  0  0  0  0  0
   12.9690    1.1220   23.5240 C   0  0  0  0  0  0  0  0  0  0  0  0
   11.7290    0.2680   23.3320 C   0  0  0  0  0  0  0  0  0  0  0  0
   11.6450   -0.6180   22.2450 C   0  0  0  0  0  0  0  0  0  0  0  0
   10.4060   -1.1670   21.8950 C   0  0  0  0  0  0  0  0  0  0  0  0
    9.2520   -0.8130   22.6090 C   0  0  0  0  0  0  0  0  0  0  0  0
    7.9750   -1.0280   22.0540 N   0  0  0  0  0  0  0  0  0  0  0  0
    7.6370   -0.6240   20.7880 C   0  0  0  0  0  0  0  0  0  0  0  0
    8.4290   -0.3930   19.8940 O   0  0  0  0  0  0  0  0  0  0  0  0
    6.2920   -0.4340   20.6390 N   0  0  0  0  0  0  0  0  0  0  0  0
    5.6940    0.2570   19.5570 C   0  0  0  0  0  0  0  0  0  0  0  0
    4.7790    1.2830   19.8270 C   0  0  0  0  0  0  0  0  0  0  0  0
    4.2970    2.0280   18.7420 C   0  0  0  0  0  0  0  0  0  0  0  0
    4.7490    1.7380   17.4460 C   0  0  0  0  0  0  0  0  0  0  0  0
    5.6020    0.7260   17.1740 N   0  0  0  0  0  0  0  0  0  0  0  0
    6.0750    0.0160   18.2190 C   0  0  0  0  0  0  0  0  0  0  0  0
    9.3590   -0.0460   23.7770 C   0  0  0  0  0  0  0  0  0  0  0  0
   10.6030    0.4840   24.1480 C   0  0  0  0  0  0  0  0  0  0  0  0
   11.5770    3.1960   23.1410 N   0  0  0  0  0  0  0  0  0  0  0  0
   11.7710    4.4170   22.5520 N   0  0  0  0  0  0  0  0  0  0  0  0
   13.0870    4.5830   22.2110 C   0  0  0  0  0  0  0  0  0  0  0  0
   13.5900    5.5140   21.6080 O   0  0  0  0  0  0  0  0  0  0  0  0
  1  2  1  0
  2  3  1  0
  2 23  1  0
  3  4  1  0
  3 21  2  0
  4  5  1  0
  5  6  2  0
  5 20  1  0
  6  7  1  0
  7  8  2  0
  8  9  1  0
  8 19  1  0
  9 10  1  0
 10 12  1  0
 10 11  2  0
 12 13  1  0
 13 14  2  0
 13 18  1  0
 14 15  1  0
 15 16  2  0
 16 17  1  0
 17 18  2  0
 19 20  2  0
 21 22  1  0
 22 23  1  0
 23 24  2  0
M  END
>  <original SMILES>  (322) 
Nn1c(Cc2ccc(NC(=O)Nc3cccnc3)cc2)n[nH]c1=O

>  <AutoDock Predicted Affinity>  (322) 
-7.0848

>  <ref_pdb>  (322) 
x0434_0

>  <ref_mols>  (322) 
x0434_0

>  <creator>  (322) 
Will Poole

>  <energy minimised>  (322) 
True

$$$$
WPC0876_minimised.pdb
     RDKit          3D

 23 24  0  0  0  0  0  0  0  0999 V2000
   11.9860    3.5800   24.2840 O   0  0  0  0  0  0  0  0  0  0  0  0
   12.5950    3.4130   23.2390 C   0  0  0  0  0  0  0  0  0  0  0  0
   12.8700    4.4700   22.1990 C   0  0  0  0  0  0  0  0  0  0  0  0
   13.4590    5.5720   22.5580 N   0  0  0  0  0  0  0  0  0  0  0  0
   13.0610    6.1640   23.7580 O   0  0  0  0  0  0  0  0  0  0  0  0
   13.1510    2.1840   22.9460 N   0  0  0  0  0  0  0  0  0  0  0  0
   12.9840    0.9700   23.7400 C   0  0  0  0  0  0  0  0  0  0  0  0
   11.6690    0.3210   23.3950 C   0  0  0  0  0  0  0  0  0  0  0  0
   11.5790   -0.5590   22.3040 C   0  0  0  0  0  0  0  0  0  0  0  0
   10.3220   -1.0000   21.8740 C   0  0  0  0  0  0  0  0  0  0  0  0
    9.1620   -0.5470   22.5200 C   0  0  0  0  0  0  0  0  0  0  0  0
    7.8970   -0.7500   21.9400 N   0  0  0  0  0  0  0  0  0  0  0  0
    7.5910   -0.3650   20.6640 C   0  0  0  0  0  0  0  0  0  0  0  0
    8.4070   -0.1150   19.7960 O   0  0  0  0  0  0  0  0  0  0  0  0
    6.2460   -0.2210   20.4780 N   0  0  0  0  0  0  0  0  0  0  0  0
    5.6540    0.4560   19.3890 C   0  0  0  0  0  0  0  0  0  0  0  0
    4.7060    1.4540   19.6430 C   0  0  0  0  0  0  0  0  0  0  0  0
    4.2360    2.1970   18.5530 C   0  0  0  0  0  0  0  0  0  0  0  0
    4.7410    1.9390   17.2700 C   0  0  0  0  0  0  0  0  0  0  0  0
    5.6260    0.9500   17.0120 N   0  0  0  0  0  0  0  0  0  0  0  0
    6.0770    0.2350   18.0620 C   0  0  0  0  0  0  0  0  0  0  0  0
    9.2560    0.2660   23.6570 C   0  0  0  0  0  0  0  0  0  0  0  0
   10.5120    0.7000   24.0980 C   0  0  0  0  0  0  0  0  0  0  0  0
  1  2  2  0
  2  3  1  0
  2  6  1  0
  3  4  2  0
  4  5  1  0
  6  7  1  0
  7  8  1  0
  8 23  2  0
  8  9  1  0
  9 10  2  0
 10 11  1  0
 11 12  1  0
 11 22  2  0
 12 13  1  0
 13 14  2  0
 13 15  1  0
 15 16  1  0
 16 17  2  0
 16 21  1  0
 17 18  1  0
 18 19  2  0
 19 20  1  0
 20 21  2  0
 22 23  1  0
M  END
>  <original SMILES>  (323) 
O=C(C=NO)NCc1ccc(NC(=O)Nc2cccnc2)cc1

>  <AutoDock Predicted Affinity>  (323) 
-5.78263

>  <ref_pdb>  (323) 
x0434_0

>  <ref_mols>  (323) 
x0434_0

>  <creator>  (323) 
Will Poole

>  <energy minimised>  (323) 
True

$$$$
WPC0624_minimised.pdb
     RDKit          3D

 24 25  0  0  0  0  0  0  0  0999 V2000
   14.8450    4.2060   23.3980 O   0  0  0  0  0  0  0  0  0  0  0  0
   14.1630    3.3740   22.8260 C   0  0  0  0  0  0  0  0  0  0  0  0
   14.6320    1.9560   22.5140 C   0  0  0  0  0  0  0  0  0  0  0  0
   13.9970    0.8280   23.3560 C   0  0  0  0  0  0  0  0  0  0  0  0
   12.5270    0.6080   23.0690 C   0  0  0  0  0  0  0  0  0  0  0  0
   12.1400   -0.2590   22.0360 C   0  0  0  0  0  0  0  0  0  0  0  0
   10.7800   -0.4660   21.7760 C   0  0  0  0  0  0  0  0  0  0  0  0
    9.8020    0.2040   22.5260 C   0  0  0  0  0  0  0  0  0  0  0  0
    8.4410    0.0950   22.1740 N   0  0  0  0  0  0  0  0  0  0  0  0
    7.9580    0.2870   20.9090 C   0  0  0  0  0  0  0  0  0  0  0  0
    8.6630    0.4800   19.9380 O   0  0  0  0  0  0  0  0  0  0  0  0
    6.5940    0.2760   20.8290 N   0  0  0  0  0  0  0  0  0  0  0  0
    5.8610    0.6950   19.6920 C   0  0  0  0  0  0  0  0  0  0  0  0
    4.8580    1.6570   19.8560 C   0  0  0  0  0  0  0  0  0  0  0  0
    4.2600    2.1740   18.7020 C   0  0  0  0  0  0  0  0  0  0  0  0
    4.6950    1.7400   17.4420 C   0  0  0  0  0  0  0  0  0  0  0  0
    5.6200    0.7680   17.2730 N   0  0  0  0  0  0  0  0  0  0  0  0
    6.1990    0.2730   18.3860 C   0  0  0  0  0  0  0  0  0  0  0  0
   10.1850    1.0460   23.5790 C   0  0  0  0  0  0  0  0  0  0  0  0
   11.5460    1.2430   23.8540 C   0  0  0  0  0  0  0  0  0  0  0  0
   12.9060    3.6960   22.3950 N   0  0  0  0  0  0  0  0  0  0  0  0
   12.3960    5.0710   22.4100 C   0  0  0  0  0  0  0  0  0  0  0  0
   11.7520    5.4570   23.7550 C   0  0  0  0  0  0  0  0  0  0  0  0
   12.7560    5.9020   24.6630 O   0  0  0  0  0  0  0  0  0  0  0  0
  1  2  2  0
  2 21  1  0
  2  3  1  0
  3  4  1  0
  4  5  1  0
  5 20  2  0
  5  6  1  0
  6  7  2  0
  7  8  1  0
  8  9  1  0
  8 19  2  0
  9 10  1  0
 10 11  2  0
 10 12  1  0
 12 13  1  0
 13 14  2  0
 13 18  1  0
 14 15  1  0
 15 16  2  0
 16 17  1  0
 17 18  2  0
 19 20  1  0
 21 22  1  0
 22 23  1  0
 23 24  1  0
M  END
>  <original SMILES>  (324) 
O=C(CCc1ccc(NC(=O)Nc2cccnc2)cc1)NCCO

>  <AutoDock Predicted Affinity>  (324) 
-5.958239

>  <ref_pdb>  (324) 
x0434_0

>  <ref_mols>  (324) 
x0434_0

>  <creator>  (324) 
Will Poole

>  <energy minimised>  (324) 
True

$$$$
WPC0701_minimised.pdb
     RDKit          3D

 24 26  0  0  0  0  0  0  0  0999 V2000
   14.5850    4.4570   23.4020 O   0  0  0  0  0  0  0  0  0  0  0  0
   13.7550    3.7730   22.8350 C   0  0  0  0  0  0  0  0  0  0  0  0
   14.1410    2.4980   22.1010 C   0  0  0  0  0  0  0  0  0  0  0  0
   14.0860    0.9860   23.1550 S   0  0  0  0  0  0  0  0  0  0  0  0
   12.3870    0.5240   23.0040 C   0  0  0  0  0  0  0  0  0  0  0  0
   12.0270   -0.4260   22.0410 C   0  0  0  0  0  0  0  0  0  0  0  0
   10.6730   -0.7060   21.8200 C   0  0  0  0  0  0  0  0  0  0  0  0
    9.6840   -0.0260   22.5490 C   0  0  0  0  0  0  0  0  0  0  0  0
    8.3330   -0.1410   22.1660 N   0  0  0  0  0  0  0  0  0  0  0  0
    7.8910    0.1240   20.8980 C   0  0  0  0  0  0  0  0  0  0  0  0
    8.6310    0.3560   19.9610 O   0  0  0  0  0  0  0  0  0  0  0  0
    6.5300    0.1470   20.7780 N   0  0  0  0  0  0  0  0  0  0  0  0
    5.8420    0.6420   19.6450 C   0  0  0  0  0  0  0  0  0  0  0  0
    4.8570    1.6200   19.8260 C   0  0  0  0  0  0  0  0  0  0  0  0
    4.3140    2.2140   18.6800 C   0  0  0  0  0  0  0  0  0  0  0  0
    4.7790    1.8330   17.4140 C   0  0  0  0  0  0  0  0  0  0  0  0
    5.6840    0.8460   17.2260 N   0  0  0  0  0  0  0  0  0  0  0  0
    6.2120    0.2800   18.3300 C   0  0  0  0  0  0  0  0  0  0  0  0
   10.0490    0.8740   23.5620 C   0  0  0  0  0  0  0  0  0  0  0  0
   11.4060    1.1470   23.7910 C   0  0  0  0  0  0  0  0  0  0  0  0
   12.4230    4.1270   22.8220 N   0  0  0  0  0  0  0  0  0  0  0  0
   11.9100    5.2910   23.4920 C   0  0  0  0  0  0  0  0  0  0  0  0
   10.4480    5.5590   23.2180 C   0  0  0  0  0  0  0  0  0  0  0  0
   10.8730    4.9720   24.5400 C   0  0  0  0  0  0  0  0  0  0  0  0
  1  2  2  0
  2  3  1  0
  2 21  1  0
  3  4  1  0
  4  5  1  0
  5  6  2  0
  5 20  1  0
  6  7  1  0
  7  8  2  0
  8  9  1  0
  8 19  1  0
  9 10  1  0
 10 12  1  0
 10 11  2  0
 12 13  1  0
 13 14  2  0
 13 18  1  0
 14 15  1  0
 15 16  2  0
 16 17  1  0
 17 18  2  0
 19 20  2  0
 21 22  1  0
 22 23  1  0
 22 24  1  0
 23 24  1  0
M  END
>  <original SMILES>  (325) 
O=C(CSc1ccc(NC(=O)Nc2cccnc2)cc1)NC1CC1

>  <AutoDock Predicted Affinity>  (325) 
-6.004678

>  <ref_pdb>  (325) 
x0434_0

>  <ref_mols>  (325) 
x0434_0

>  <creator>  (325) 
Will Poole

>  <energy minimised>  (325) 
True

$$$$
WPC0882_minimised.pdb
     RDKit          3D

 23 25  0  0  0  0  0  0  0  0999 V2000
   15.1500    1.6380   22.6600 O   0  0  0  0  0  0  0  0  0  0  0  0
   14.0000    1.6320   23.0370 C   0  0  0  0  0  0  0  0  0  0  0  0
   13.3770    0.3680   23.5990 C   0  0  0  0  0  0  0  0  0  0  0  0
   11.9130    0.1670   23.2570 C   0  0  0  0  0  0  0  0  0  0  0  0
   11.5650   -0.6700   22.1850 C   0  0  0  0  0  0  0  0  0  0  0  0
   10.2210   -0.8170   21.8270 C   0  0  0  0  0  0  0  0  0  0  0  0
    9.2230   -0.1220   22.5260 C   0  0  0  0  0  0  0  0  0  0  0  0
    7.8980   -0.1270   22.0530 N   0  0  0  0  0  0  0  0  0  0  0  0
    7.5480    0.1590   20.7630 C   0  0  0  0  0  0  0  0  0  0  0  0
    8.3400    0.3070   19.8530 O   0  0  0  0  0  0  0  0  0  0  0  0
    6.2000    0.3000   20.6020 N   0  0  0  0  0  0  0  0  0  0  0  0
    5.5700    0.8210   19.4500 C   0  0  0  0  0  0  0  0  0  0  0  0
    4.5860    1.8030   19.6080 C   0  0  0  0  0  0  0  0  0  0  0  0
    4.0800    2.4050   18.4510 C   0  0  0  0  0  0  0  0  0  0  0  0
    4.5790    2.0260   17.1970 C   0  0  0  0  0  0  0  0  0  0  0  0
    5.4860    1.0360   17.0320 N   0  0  0  0  0  0  0  0  0  0  0  0
    5.9790    0.4630   18.1470 C   0  0  0  0  0  0  0  0  0  0  0  0
    9.5600    0.6590   23.6400 C   0  0  0  0  0  0  0  0  0  0  0  0
   10.9050    0.7960   24.0130 C   0  0  0  0  0  0  0  0  0  0  0  0
   13.2240    2.7660   23.0420 N   0  0  0  0  0  0  0  0  0  0  0  0
   13.7490    4.0830   22.8310 C   0  0  0  0  0  0  0  0  0  0  0  0
   12.7320    5.1520   23.1330 C   0  0  0  0  0  0  0  0  0  0  0  0
   13.0940    4.8280   21.7030 C   0  0  0  0  0  0  0  0  0  0  0  0
  1  2  2  0
  2  3  1  0
  2 20  1  0
  3  4  1  0
  4  5  2  0
  4 19  1  0
  5  6  1  0
  6  7  2  0
  7  8  1  0
  7 18  1  0
  8  9  1  0
  9 11  1  0
  9 10  2  0
 11 12  1  0
 12 13  2  0
 12 17  1  0
 13 14  1  0
 14 15  2  0
 15 16  1  0
 16 17  2  0
 18 19  2  0
 20 21  1  0
 21 22  1  0
 21 23  1  0
 22 23  1  0
M  END
>  <original SMILES>  (326) 
O=C(Cc1ccc(NC(=O)Nc2cccnc2)cc1)NC1CC1

>  <AutoDock Predicted Affinity>  (326) 
-6.34153

>  <ref_pdb>  (326) 
x0434_0

>  <ref_mols>  (326) 
x0434_0

>  <creator>  (326) 
Will Poole

>  <energy minimised>  (326) 
True

$$$$
WPC0801_minimised.pdb
     RDKit          3D

 23 24  0  0  0  0  0  0  0  0999 V2000
   14.9850    1.4960   22.5500 O   0  0  0  0  0  0  0  0  0  0  0  0
   13.8670    1.5170   23.0140 C   0  0  0  0  0  0  0  0  0  0  0  0
   13.2820    0.2870   23.6760 C   0  0  0  0  0  0  0  0  0  0  0  0
   11.8290    0.0280   23.3280 C   0  0  0  0  0  0  0  0  0  0  0  0
   11.5220   -0.7980   22.2360 C   0  0  0  0  0  0  0  0  0  0  0  0
   10.1890   -0.9740   21.8510 C   0  0  0  0  0  0  0  0  0  0  0  0
    9.1620   -0.3170   22.5450 C   0  0  0  0  0  0  0  0  0  0  0  0
    7.8510   -0.3300   22.0360 N   0  0  0  0  0  0  0  0  0  0  0  0
    7.5350    0.0130   20.7500 C   0  0  0  0  0  0  0  0  0  0  0  0
    8.3520    0.2080   19.8700 O   0  0  0  0  0  0  0  0  0  0  0  0
    6.1900    0.1550   20.5590 N   0  0  0  0  0  0  0  0  0  0  0  0
    5.5920    0.7320   19.4170 C   0  0  0  0  0  0  0  0  0  0  0  0
    4.6140    1.7180   19.5910 C   0  0  0  0  0  0  0  0  0  0  0  0
    4.1420    2.3730   18.4480 C   0  0  0  0  0  0  0  0  0  0  0  0
    4.6670    2.0400   17.1920 C   0  0  0  0  0  0  0  0  0  0  0  0
    5.5710    1.0510   17.0090 N   0  0  0  0  0  0  0  0  0  0  0  0
    6.0300    0.4250   18.1100 C   0  0  0  0  0  0  0  0  0  0  0  0
    9.4590    0.4500   23.6800 C   0  0  0  0  0  0  0  0  0  0  0  0
   10.7930    0.6170   24.0780 C   0  0  0  0  0  0  0  0  0  0  0  0
   13.0710    2.6330   22.9570 N   0  0  0  0  0  0  0  0  0  0  0  0
   13.4400    3.8260   22.1930 C   0  0  0  0  0  0  0  0  0  0  0  0
   12.7370    5.0880   22.7070 C   0  0  0  0  0  0  0  0  0  0  0  0
   11.3140    4.9280   22.7390 O   0  0  0  0  0  0  0  0  0  0  0  0
  1  2  2  0
  2 20  1  0
  2  3  1  0
  3  4  1  0
  4 19  2  0
  4  5  1  0
  5  6  2  0
  6  7  1  0
  7  8  1  0
  7 18  2  0
  8  9  1  0
  9 10  2  0
  9 11  1  0
 11 12  1  0
 12 13  2  0
 12 17  1  0
 13 14  1  0
 14 15  2  0
 15 16  1  0
 16 17  2  0
 18 19  1  0
 20 21  1  0
 21 22  1  0
 22 23  1  0
M  END
>  <original SMILES>  (327) 
O=C(Cc1ccc(NC(=O)Nc2cccnc2)cc1)NCCO

>  <AutoDock Predicted Affinity>  (327) 
-5.758165

>  <ref_pdb>  (327) 
x0434_0

>  <ref_mols>  (327) 
x0434_0

>  <creator>  (327) 
Will Poole

>  <energy minimised>  (327) 
True

$$$$
WPC0598_minimised.pdb
     RDKit          3D

 17 18  0  0  0  0  0  0  0  0999 V2000
    8.4460    0.2160   19.8390 O   0  0  0  0  0  0  0  0  0  0  0  0
    7.7260    0.0680   20.8070 C   0  0  0  0  0  0  0  0  0  0  0  0
    8.1980   -0.1350   22.0720 N   0  0  0  0  0  0  0  0  0  0  0  0
    9.5640   -0.0550   22.3960 C   0  0  0  0  0  0  0  0  0  0  0  0
   10.4620   -0.9820   21.8460 C   0  0  0  0  0  0  0  0  0  0  0  0
   11.8410   -0.8130   22.0260 C   0  0  0  0  0  0  0  0  0  0  0  0
   12.3120    0.2850   22.7600 C   0  0  0  0  0  0  0  0  0  0  0  0
   14.1820    0.5500   22.9430 Br  0  0  0  0  0  0  0  0  0  0  0  0
   11.4180    1.2000   23.3350 C   0  0  0  0  0  0  0  0  0  0  0  0
   10.0370    1.0280   23.1530 C   0  0  0  0  0  0  0  0  0  0  0  0
    6.3630    0.1380   20.7270 N   0  0  0  0  0  0  0  0  0  0  0  0
    5.6610    0.6410   19.6060 C   0  0  0  0  0  0  0  0  0  0  0  0
    4.6940    1.6320   19.8060 C   0  0  0  0  0  0  0  0  0  0  0  0
    4.1410    2.2390   18.6720 C   0  0  0  0  0  0  0  0  0  0  0  0
    4.5790    1.8540   17.3970 C   0  0  0  0  0  0  0  0  0  0  0  0
    5.4690    0.8560   17.1930 N   0  0  0  0  0  0  0  0  0  0  0  0
    6.0030    0.2750   18.2850 C   0  0  0  0  0  0  0  0  0  0  0  0
  1  2  2  0
  2  3  1  0
  2 11  1  0
  3  4  1  0
  4  5  2  0
  4 10  1  0
  5  6  1  0
  6  7  2  0
  7  8  1  0
  7  9  1  0
  9 10  2  0
 11 12  1  0
 12 13  2  0
 12 17  1  0
 13 14  1  0
 14 15  2  0
 15 16  1  0
 16 17  2  0
M  END
>  <original SMILES>  (328) 
O=C(Nc1ccc(Br)cc1)Nc1cccnc1

>  <AutoDock Predicted Affinity>  (328) 
-5.04645

>  <ref_pdb>  (328) 
x0434_0

>  <ref_mols>  (328) 
x0434_0

>  <creator>  (328) 
Will Poole

>  <energy minimised>  (328) 
True

$$$$
WPC0791_minimised.pdb
     RDKit          3D

 19 20  0  0  0  0  0  0  0  0999 V2000
    8.4020    0.3470   19.8610 O   0  0  0  0  0  0  0  0  0  0  0  0
    7.6860    0.2450   20.8380 C   0  0  0  0  0  0  0  0  0  0  0  0
    8.1680    0.0870   22.1060 N   0  0  0  0  0  0  0  0  0  0  0  0
    9.5420    0.1300   22.4040 C   0  0  0  0  0  0  0  0  0  0  0  0
   10.3890   -0.8380   21.8500 C   0  0  0  0  0  0  0  0  0  0  0  0
   11.7760   -0.7060   21.9760 C   0  0  0  0  0  0  0  0  0  0  0  0
   12.3230    0.3920   22.6640 C   0  0  0  0  0  0  0  0  0  0  0  0
   13.8300    0.5620   22.7260 C   0  0  0  0  0  0  0  0  0  0  0  0
   14.3750   -0.2100   23.6860 F   0  0  0  0  0  0  0  0  0  0  0  0
   14.3910    0.1810   21.5620 F   0  0  0  0  0  0  0  0  0  0  0  0
   11.4680    1.3440   23.2490 C   0  0  0  0  0  0  0  0  0  0  0  0
   10.0760    1.2120   23.1180 C   0  0  0  0  0  0  0  0  0  0  0  0
    6.3240    0.3170   20.7610 N   0  0  0  0  0  0  0  0  0  0  0  0
    5.6150    0.7750   19.6250 C   0  0  0  0  0  0  0  0  0  0  0  0
    4.6350    1.7590   19.7960 C   0  0  0  0  0  0  0  0  0  0  0  0
    4.0770    2.3260   18.6450 C   0  0  0  0  0  0  0  0  0  0  0  0
    4.5230    1.9120   17.3820 C   0  0  0  0  0  0  0  0  0  0  0  0
    5.4220    0.9160   17.2050 N   0  0  0  0  0  0  0  0  0  0  0  0
    5.9610    0.3730   18.3140 C   0  0  0  0  0  0  0  0  0  0  0  0
  1  2  2  0
  2  3  1  0
  2 13  1  0
  3  4  1  0
  4  5  2  0
  4 12  1  0
  5  6  1  0
  6  7  2  0
  7  8  1  0
  7 11  1  0
  8  9  1  0
  8 10  1  0
 11 12  2  0
 13 14  1  0
 14 15  2  0
 14 19  1  0
 15 16  1  0
 16 17  2  0
 17 18  1  0
 18 19  2  0
M  END
>  <original SMILES>  (329) 
O=C(Nc1ccc(C(F)F)cc1)Nc1cccnc1

>  <AutoDock Predicted Affinity>  (329) 
-6.009035

>  <ref_pdb>  (329) 
x0434_0

>  <ref_mols>  (329) 
x0434_0

>  <creator>  (329) 
Will Poole

>  <energy minimised>  (329) 
True

$$$$
WPC0512_minimised.pdb
     RDKit          3D

 24 26  0  0  1  0  0  0  0  0999 V2000
    8.5150    0.3570   20.0990 O   0  0  0  0  0  0  0  0  0  0  0  0
    7.7210    0.0440   20.9670 C   0  0  0  0  0  0  0  0  0  0  0  0
    8.0630   -0.4110   22.2150 N   0  0  0  0  0  0  0  0  0  0  0  0
    9.3810   -0.4880   22.7110 C   0  0  0  0  0  0  0  0  0  0  0  0
   10.4110   -0.9700   21.8900 C   0  0  0  0  0  0  0  0  0  0  0  0
   11.7460   -0.8440   22.2850 C   0  0  0  0  0  0  0  0  0  0  0  0
   12.0580   -0.2600   23.5230 C   0  0  0  0  0  0  0  0  0  0  0  0
   13.5060    0.0610   23.8500 C   0  0  1  0  0  0  0  0  0  0  0  0
   14.2870   -1.1230   23.6890 O   0  0  0  0  0  0  0  0  0  0  0  0
   14.0800    1.2020   22.9590 C   0  0  0  0  0  0  0  0  0  0  0  0
   13.5190    2.5530   23.2280 N   0  0  0  0  0  0  0  0  0  0  0  0
   14.3260    3.6810   22.7420 C   0  0  0  0  0  0  0  0  0  0  0  0
   13.3770    4.8770   22.7850 C   0  0  0  0  0  0  0  0  0  0  0  0
   12.0450    4.2510   22.3740 C   0  0  0  0  0  0  0  0  0  0  0  0
   12.1040    2.7980   22.8770 C   0  0  0  0  0  0  0  0  0  0  0  0
   11.0190    0.1130   24.3980 C   0  0  0  0  0  0  0  0  0  0  0  0
    9.6810    0.0090   23.9870 C   0  0  0  0  0  0  0  0  0  0  0  0
    6.3700    0.1250   20.7850 N   0  0  0  0  0  0  0  0  0  0  0  0
    5.7380    0.6520   19.6350 C   0  0  0  0  0  0  0  0  0  0  0  0
    4.7370    1.6180   19.7900 C   0  0  0  0  0  0  0  0  0  0  0  0
    4.2200    2.2060   18.6300 C   0  0  0  0  0  0  0  0  0  0  0  0
    4.7200    1.8260   17.3760 C   0  0  0  0  0  0  0  0  0  0  0  0
    5.6470    0.8550   17.2130 N   0  0  0  0  0  0  0  0  0  0  0  0
    6.1560    0.3000   18.3320 C   0  0  0  0  0  0  0  0  0  0  0  0
  1  2  2  0
  2  3  1  0
  2 18  1  0
  3  4  1  0
  4  5  2  0
  4 17  1  0
  5  6  1  0
  6  7  2  0
  7  8  1  0
  7 16  1  0
  8 10  1  0
  8  9  1  6
 10 11  1  0
 11 12  1  0
 11 15  1  0
 12 13  1  0
 13 14  1  0
 14 15  1  0
 16 17  2  0
 18 19  1  0
 19 20  2  0
 19 24  1  0
 20 21  1  0
 21 22  2  0
 22 23  1  0
 23 24  2  0
M  END
>  <original SMILES>  (330) 
O=C(Nc1ccc(C(O)CN2CCCC2)cc1)Nc1cccnc1

>  <AutoDock Predicted Affinity>  (330) 
-6.93644

>  <ref_pdb>  (330) 
x0434_0

>  <ref_mols>  (330) 
x0434_0

>  <creator>  (330) 
Will Poole

>  <energy minimised>  (330) 
True

$$$$
WPC0585_minimised.pdb
     RDKit          3D

 20 21  0  0  1  0  0  0  0  0999 V2000
    8.4020    0.3400   20.1220 O   0  0  0  0  0  0  0  0  0  0  0  0
    7.5800    0.0880   20.9840 C   0  0  0  0  0  0  0  0  0  0  0  0
    7.8760   -0.3960   22.2320 N   0  0  0  0  0  0  0  0  0  0  0  0
    9.1770   -0.6330   22.7220 C   0  0  0  0  0  0  0  0  0  0  0  0
   10.1330   -1.2400   21.8960 C   0  0  0  0  0  0  0  0  0  0  0  0
   11.4710   -1.3100   22.2980 C   0  0  0  0  0  0  0  0  0  0  0  0
   11.8590   -0.8070   23.5490 C   0  0  0  0  0  0  0  0  0  0  0  0
   13.3390   -0.6910   23.8810 C   0  0  1  0  0  0  0  0  0  0  0  0
   14.0130   -1.9000   23.5390 O   0  0  0  0  0  0  0  0  0  0  0  0
   13.9420    0.4930   23.0970 C   0  0  0  0  0  0  0  0  0  0  0  0
   13.2390    1.6980   23.4030 O   0  0  0  0  0  0  0  0  0  0  0  0
   10.8830   -0.2790   24.4170 C   0  0  0  0  0  0  0  0  0  0  0  0
    9.5440   -0.1870   24.0000 C   0  0  0  0  0  0  0  0  0  0  0  0
    6.2400    0.2580   20.7900 N   0  0  0  0  0  0  0  0  0  0  0  0
    5.6380    0.7870   19.6240 C   0  0  0  0  0  0  0  0  0  0  0  0
    4.6470    1.7660   19.7550 C   0  0  0  0  0  0  0  0  0  0  0  0
    4.1540    2.3490   18.5820 C   0  0  0  0  0  0  0  0  0  0  0  0
    4.6670    1.9510   17.3390 C   0  0  0  0  0  0  0  0  0  0  0  0
    5.5830    0.9650   17.1990 N   0  0  0  0  0  0  0  0  0  0  0  0
    6.0670    0.4140   18.3310 C   0  0  0  0  0  0  0  0  0  0  0  0
  1  2  2  0
  2  3  1  0
  2 14  1  0
  3  4  1  0
  4  5  2  0
  4 13  1  0
  5  6  1  0
  6  7  2  0
  7  8  1  0
  7 12  1  0
  8 10  1  0
  8  9  1  6
 10 11  1  0
 12 13  2  0
 14 15  1  0
 15 16  2  0
 15 20  1  0
 16 17  1  0
 17 18  2  0
 18 19  1  0
 19 20  2  0
M  END
>  <original SMILES>  (331) 
O=C(Nc1ccc(C(O)CO)cc1)Nc1cccnc1

>  <AutoDock Predicted Affinity>  (331) 
-5.88165

>  <ref_pdb>  (331) 
x0434_0

>  <ref_mols>  (331) 
x0434_0

>  <creator>  (331) 
Will Poole

>  <energy minimised>  (331) 
True

$$$$
WPC0984_minimised.pdb
     RDKit          3D

 22 23  0  0  1  0  0  0  0  0999 V2000
    8.5150   -0.1060   19.9760 O   0  0  0  0  0  0  0  0  0  0  0  0
    7.7070   -0.2820   20.8670 C   0  0  0  0  0  0  0  0  0  0  0  0
    8.0210   -0.6820   22.1390 N   0  0  0  0  0  0  0  0  0  0  0  0
    9.3330   -0.7260   22.6530 C   0  0  0  0  0  0  0  0  0  0  0  0
   10.3640   -1.3290   21.9190 C   0  0  0  0  0  0  0  0  0  0  0  0
   11.6980   -1.1610   22.3080 C   0  0  0  0  0  0  0  0  0  0  0  0
   12.0080   -0.4070   23.4530 C   0  0  0  0  0  0  0  0  0  0  0  0
   13.4520   -0.0470   23.7570 C   0  0  1  0  0  0  0  0  0  0  0  0
   14.2430   -1.2260   23.7160 O   0  0  0  0  0  0  0  0  0  0  0  0
   14.0210    0.9580   22.7310 C   0  0  0  0  0  0  0  0  0  0  0  0
   13.4260    2.3750   22.8550 N   0  0  0  0  0  0  0  0  0  0  0  0
   12.2150    2.4990   22.7230 O   0  0  0  0  0  0  0  0  0  0  0  0
   14.2150    3.3090   22.7740 O   0  0  0  0  0  0  0  0  0  0  0  0
   10.9630    0.1060   24.2470 C   0  0  0  0  0  0  0  0  0  0  0  0
    9.6290   -0.0480   23.8430 C   0  0  0  0  0  0  0  0  0  0  0  0
    6.3690   -0.0610   20.7000 N   0  0  0  0  0  0  0  0  0  0  0  0
    5.7750    0.5470   19.5680 C   0  0  0  0  0  0  0  0  0  0  0  0
    4.8150    1.5460   19.7640 C   0  0  0  0  0  0  0  0  0  0  0  0
    4.3280    2.2110   18.6320 C   0  0  0  0  0  0  0  0  0  0  0  0
    4.8230    1.8760   17.3640 C   0  0  0  0  0  0  0  0  0  0  0  0
    5.7110    0.8780   17.1600 N   0  0  0  0  0  0  0  0  0  0  0  0
    6.1860    0.2430   18.2510 C   0  0  0  0  0  0  0  0  0  0  0  0
  1  2  2  0
  2  3  1  0
  2 16  1  0
  3  4  1  0
  4  5  2  0
  4 15  1  0
  5  6  1  0
  6  7  2  0
  7  8  1  0
  7 14  1  0
  8 10  1  0
  8  9  1  6
 10 11  1  0
 11 12  1  0
 11 13  2  0
 14 15  2  0
 16 17  1  0
 17 18  2  0
 17 22  1  0
 18 19  1  0
 19 20  2  0
 20 21  1  0
 21 22  2  0
M  CHG  2  11   1  12  -1
M  END
>  <original SMILES>  (332) 
O=C(Nc1ccc(C(O)C[N+](=O)[O-])cc1)Nc1cccnc1

>  <AutoDock Predicted Affinity>  (332) 
-6.60346

>  <ref_pdb>  (332) 
x0434_0

>  <ref_mols>  (332) 
x0434_0

>  <creator>  (332) 
Will Poole

>  <energy minimised>  (332) 
True

$$$$
WPC0872_minimised.pdb
     RDKit          3D

 23 25  0  0  0  0  0  0  0  0999 V2000
    8.4790   -0.3260   19.8370 O   0  0  0  0  0  0  0  0  0  0  0  0
    7.7150   -0.6160   20.7380 C   0  0  0  0  0  0  0  0  0  0  0  0
    8.0970   -1.0240   21.9900 N   0  0  0  0  0  0  0  0  0  0  0  0
    9.3530   -0.7090   22.5470 C   0  0  0  0  0  0  0  0  0  0  0  0
   10.5330   -0.8870   21.8080 C   0  0  0  0  0  0  0  0  0  0  0  0
   11.7100   -0.2320   22.1910 C   0  0  0  0  0  0  0  0  0  0  0  0
   11.7100    0.5740   23.3390 C   0  0  0  0  0  0  0  0  0  0  0  0
   12.8840    1.4910   23.6270 C   0  0  0  0  0  0  0  0  0  0  0  0
   12.5450    2.9580   23.4710 C   0  0  0  0  0  0  0  0  0  0  0  0
   13.4370    3.9290   23.0770 N   0  0  0  0  0  0  0  0  0  0  0  0
   12.7570    5.0440   23.0660 N   0  0  0  0  0  0  0  0  0  0  0  0
   11.4370    4.8410   23.4450 C   0  0  0  0  0  0  0  0  0  0  0  0
   10.2040    5.9620   23.5730 S   0  0  0  0  0  0  0  0  0  0  0  0
   11.3810    3.5020   23.7360 N   0  0  0  0  0  0  0  0  0  0  0  0
   10.5750    0.6090   24.1720 C   0  0  0  0  0  0  0  0  0  0  0  0
    9.3900   -0.0190   23.7660 C   0  0  0  0  0  0  0  0  0  0  0  0
    6.3610   -0.4790   20.6120 N   0  0  0  0  0  0  0  0  0  0  0  0
    5.7360    0.2250   19.5550 C   0  0  0  0  0  0  0  0  0  0  0  0
    4.8450    1.2630   19.8560 C   0  0  0  0  0  0  0  0  0  0  0  0
    4.3510    2.0280   18.7910 C   0  0  0  0  0  0  0  0  0  0  0  0
    4.7700    1.7460   17.4820 C   0  0  0  0  0  0  0  0  0  0  0  0
    5.6040    0.7250   17.1820 N   0  0  0  0  0  0  0  0  0  0  0  0
    6.0840   -0.0050   18.2070 C   0  0  0  0  0  0  0  0  0  0  0  0
  1  2  2  0
  2  3  1  0
  2 17  1  0
  3  4  1  0
  4  5  2  0
  4 16  1  0
  5  6  1  0
  6  7  2  0
  7  8  1  0
  7 15  1  0
  8  9  1  0
  9 10  1  0
  9 14  2  0
 10 11  2  0
 11 12  1  0
 12 13  2  0
 12 14  1  0
 15 16  2  0
 17 18  1  0
 18 19  2  0
 18 23  1  0
 19 20  1  0
 20 21  2  0
 21 22  1  0
 22 23  2  0
M  END
>  <original SMILES>  (333) 
O=C(Nc1ccc(CC2=NC(=S)N=N2)cc1)Nc1cccnc1

>  <AutoDock Predicted Affinity>  (333) 
-6.7217

>  <ref_pdb>  (333) 
x0434_0

>  <ref_mols>  (333) 
x0434_0

>  <creator>  (333) 
Will Poole

>  <energy minimised>  (333) 
True

$$$$
WPC0462_minimised.pdb
     RDKit          3D

 23 24  0  0  1  0  0  0  0  0999 V2000
    8.7370    0.1680   20.0230 O   0  0  0  0  0  0  0  0  0  0  0  0
    8.0210   -0.0860   20.9700 C   0  0  0  0  0  0  0  0  0  0  0  0
    8.4830   -0.3690   22.2270 N   0  0  0  0  0  0  0  0  0  0  0  0
    9.8200   -0.1830   22.6380 C   0  0  0  0  0  0  0  0  0  0  0  0
   10.8810   -0.7850   21.9420 C   0  0  0  0  0  0  0  0  0  0  0  0
   12.2100   -0.4650   22.2640 C   0  0  0  0  0  0  0  0  0  0  0  0
   12.4840    0.4790   23.2670 C   0  0  0  0  0  0  0  0  0  0  0  0
   13.9150    0.9160   23.5500 C   0  0  0  0  0  0  0  0  0  0  0  0
   14.5550    1.8040   22.4540 C   0  0  0  0  0  0  0  0  0  0  0  0
   13.7270    3.0310   21.9880 C   0  0  2  0  0  0  0  0  0  0  0  0
   14.4880    3.7680   21.0370 O   0  0  0  0  0  0  0  0  0  0  0  0
   13.3220    3.9620   23.1420 C   0  0  0  0  0  0  0  0  0  0  0  0
   12.6310    5.2450   22.6700 C   0  0  0  0  0  0  0  0  0  0  0  0
   11.8910    5.8050   23.7550 O   0  0  0  0  0  0  0  0  0  0  0  0
   11.4190    1.0120   24.0170 C   0  0  0  0  0  0  0  0  0  0  0  0
   10.0920    0.6870   23.7010 C   0  0  0  0  0  0  0  0  0  0  0  0
    6.6570   -0.0640   20.8730 N   0  0  0  0  0  0  0  0  0  0  0  0
    5.9490    0.4510   19.7580 C   0  0  0  0  0  0  0  0  0  0  0  0
    4.9920    1.4510   19.9670 C   0  0  0  0  0  0  0  0  0  0  0  0
    4.4150    2.0470   18.8380 C   0  0  0  0  0  0  0  0  0  0  0  0
    4.8120    1.6350   17.5570 C   0  0  0  0  0  0  0  0  0  0  0  0
    5.6970    0.6350   17.3460 N   0  0  0  0  0  0  0  0  0  0  0  0
    6.2680    0.0770   18.4330 C   0  0  0  0  0  0  0  0  0  0  0  0
  1  2  2  0
  2  3  1  0
  2 17  1  0
  3  4  1  0
  4  5  2  0
  4 16  1  0
  5  6  1  0
  6  7  2  0
  7  8  1  0
  7 15  1  0
  8  9  1  0
  9 10  1  0
 10 12  1  0
 10 11  1  6
 12 13  1  0
 13 14  1  0
 15 16  2  0
 17 18  1  0
 18 19  2  0
 18 23  1  0
 19 20  1  0
 20 21  2  0
 21 22  1  0
 22 23  2  0
M  END
>  <original SMILES>  (334) 
O=C(Nc1ccc(CCC(O)CCO)cc1)Nc1cccnc1

>  <AutoDock Predicted Affinity>  (334) 
-6.070303

>  <ref_pdb>  (334) 
x0434_0

>  <ref_mols>  (334) 
x0434_0

>  <creator>  (334) 
Will Poole

>  <energy minimised>  (334) 
True

$$$$
WPC0714_minimised.pdb
     RDKit          3D

 21 22  0  0  0  0  0  0  0  0999 V2000
    8.4530   -0.0060   19.8520 O   0  0  0  0  0  0  0  0  0  0  0  0
    7.6820   -0.2190   20.7690 C   0  0  0  0  0  0  0  0  0  0  0  0
    8.0580   -0.5210   22.0490 N   0  0  0  0  0  0  0  0  0  0  0  0
    9.3650   -0.3330   22.5370 C   0  0  0  0  0  0  0  0  0  0  0  0
   10.4600   -0.8910   21.8640 C   0  0  0  0  0  0  0  0  0  0  0  0
   11.7640   -0.5040   22.1990 C   0  0  0  0  0  0  0  0  0  0  0  0
   11.9730    0.4480   23.2100 C   0  0  0  0  0  0  0  0  0  0  0  0
   13.3690    0.9760   23.4870 C   0  0  0  0  0  0  0  0  0  0  0  0
   13.6850    2.3410   22.8190 C   0  0  0  0  0  0  0  0  0  0  0  0
   12.6540    3.4680   23.0820 C   0  0  0  0  0  0  0  0  0  0  0  0
   13.2260    4.8940   22.9260 C   0  0  0  0  0  0  0  0  0  0  0  0
   13.9040    5.0700   21.6850 O   0  0  0  0  0  0  0  0  0  0  0  0
   10.8780    0.9070   23.9670 C   0  0  0  0  0  0  0  0  0  0  0  0
    9.5740    0.5270   23.6230 C   0  0  0  0  0  0  0  0  0  0  0  0
    6.3260   -0.1150   20.6320 N   0  0  0  0  0  0  0  0  0  0  0  0
    5.6760    0.4840   19.5280 C   0  0  0  0  0  0  0  0  0  0  0  0
    4.7230    1.4820   19.7660 C   0  0  0  0  0  0  0  0  0  0  0  0
    4.1940    2.1530   18.6570 C   0  0  0  0  0  0  0  0  0  0  0  0
    4.6360    1.8190   17.3690 C   0  0  0  0  0  0  0  0  0  0  0  0
    5.5220    0.8260   17.1290 N   0  0  0  0  0  0  0  0  0  0  0  0
    6.0420    0.1900   18.1970 C   0  0  0  0  0  0  0  0  0  0  0  0
  1  2  2  0
  2  3  1  0
  2 15  1  0
  3  4  1  0
  4  5  2  0
  4 14  1  0
  5  6  1  0
  6  7  2  0
  7  8  1  0
  7 13  1  0
  8  9  1  0
  9 10  1  0
 10 11  1  0
 11 12  1  0
 13 14  2  0
 15 16  1  0
 16 17  2  0
 16 21  1  0
 17 18  1  0
 18 19  2  0
 19 20  1  0
 20 21  2  0
M  END
>  <original SMILES>  (335) 
O=C(Nc1ccc(CCCCO)cc1)Nc1cccnc1

>  <AutoDock Predicted Affinity>  (335) 
-5.892722

>  <ref_pdb>  (335) 
x0434_0

>  <ref_mols>  (335) 
x0434_0

>  <creator>  (335) 
Will Poole

>  <energy minimised>  (335) 
True

$$$$
WPC0479_minimised.pdb
     RDKit          3D

 20 21  0  0  0  0  0  0  0  0999 V2000
    8.6330    0.1860   19.8710 O   0  0  0  0  0  0  0  0  0  0  0  0
    7.8790   -0.0030   20.8070 C   0  0  0  0  0  0  0  0  0  0  0  0
    8.2910   -0.2730   22.0840 N   0  0  0  0  0  0  0  0  0  0  0  0
    9.6310   -0.1660   22.5030 C   0  0  0  0  0  0  0  0  0  0  0  0
   10.6340   -0.8660   21.8180 C   0  0  0  0  0  0  0  0  0  0  0  0
   11.9830   -0.5940   22.0760 C   0  0  0  0  0  0  0  0  0  0  0  0
   12.3290    0.3670   23.0390 C   0  0  0  0  0  0  0  0  0  0  0  0
   13.7810    0.7490   23.2260 C   0  0  0  0  0  0  0  0  0  0  0  0
   14.2300    1.7920   22.1840 C   0  0  0  0  0  0  0  0  0  0  0  0
   13.6440    3.2070   22.3950 C   0  0  0  0  0  0  0  0  0  0  0  0
   14.5010    3.9780   23.2320 O   0  0  0  0  0  0  0  0  0  0  0  0
   11.3210    1.0090   23.7830 C   0  0  0  0  0  0  0  0  0  0  0  0
    9.9710    0.7460   23.5110 C   0  0  0  0  0  0  0  0  0  0  0  0
    6.5210    0.0820   20.6890 N   0  0  0  0  0  0  0  0  0  0  0  0
    5.8460    0.6160   19.5660 C   0  0  0  0  0  0  0  0  0  0  0  0
    4.8660    1.5940   19.7710 C   0  0  0  0  0  0  0  0  0  0  0  0
    4.3210    2.2130   18.6400 C   0  0  0  0  0  0  0  0  0  0  0  0
    4.7810    1.8580   17.3650 C   0  0  0  0  0  0  0  0  0  0  0  0
    5.6840    0.8740   17.1550 N   0  0  0  0  0  0  0  0  0  0  0  0
    6.2120    0.2810   18.2440 C   0  0  0  0  0  0  0  0  0  0  0  0
  1  2  2  0
  2  3  1  0
  2 14  1  0
  3  4  1  0
  4  5  2  0
  4 13  1  0
  5  6  1  0
  6  7  2  0
  7  8  1  0
  7 12  1  0
  8  9  1  0
  9 10  1  0
 10 11  1  0
 12 13  2  0
 14 15  1  0
 15 16  2  0
 15 20  1  0
 16 17  1  0
 17 18  2  0
 18 19  1  0
 19 20  2  0
M  END
>  <original SMILES>  (336) 
O=C(Nc1ccc(CCCO)cc1)Nc1cccnc1

>  <AutoDock Predicted Affinity>  (336) 
-5.4946

>  <ref_pdb>  (336) 
x0434_0

>  <ref_mols>  (336) 
x0434_0

>  <creator>  (336) 
Will Poole

>  <energy minimised>  (336) 
True

$$$$
WPC0815_minimised.pdb
     RDKit          3D

 24 26  0  0  0  0  0  0  0  0999 V2000
    8.6250    0.0830   20.0150 O   0  0  0  0  0  0  0  0  0  0  0  0
    7.8760   -0.1820   20.9370 C   0  0  0  0  0  0  0  0  0  0  0  0
    8.2860   -0.5140   22.2020 N   0  0  0  0  0  0  0  0  0  0  0  0
    9.6090   -0.3550   22.6610 C   0  0  0  0  0  0  0  0  0  0  0  0
   10.6750   -0.9130   21.9420 C   0  0  0  0  0  0  0  0  0  0  0  0
   11.9920   -0.5270   22.2230 C   0  0  0  0  0  0  0  0  0  0  0  0
   12.2420    0.4240   23.2260 C   0  0  0  0  0  0  0  0  0  0  0  0
   13.6280    1.0280   23.3830 C   0  0  0  0  0  0  0  0  0  0  0  0
   13.8230    2.3670   22.6210 C   0  0  0  0  0  0  0  0  0  0  0  0
   12.9650    3.4620   23.1170 N   0  0  0  0  0  0  0  0  0  0  0  0
   13.6380    4.7710   23.2430 C   0  0  0  0  0  0  0  0  0  0  0  0
   12.7110    5.7870   23.8880 C   0  0  0  0  0  0  0  0  0  0  0  0
   11.3830    5.6380   23.9360 C   0  0  0  0  0  0  0  0  0  0  0  0
   10.6920    4.4250   23.3490 C   0  0  0  0  0  0  0  0  0  0  0  0
   11.6500    3.6050   22.4490 C   0  0  0  0  0  0  0  0  0  0  0  0
   11.1840    0.8660   24.0410 C   0  0  0  0  0  0  0  0  0  0  0  0
    9.8650    0.4890   23.7510 C   0  0  0  0  0  0  0  0  0  0  0  0
    6.5160   -0.1270   20.8110 N   0  0  0  0  0  0  0  0  0  0  0  0
    5.8350    0.4200   19.6970 C   0  0  0  0  0  0  0  0  0  0  0  0
    4.8690    1.4110   19.9150 C   0  0  0  0  0  0  0  0  0  0  0  0
    4.3010    2.0240   18.7910 C   0  0  0  0  0  0  0  0  0  0  0  0
    4.7150    1.6380   17.5080 C   0  0  0  0  0  0  0  0  0  0  0  0
    5.6140    0.6530   17.2870 N   0  0  0  0  0  0  0  0  0  0  0  0
    6.1750    0.0770   18.3700 C   0  0  0  0  0  0  0  0  0  0  0  0
  1  2  2  0
  2  3  1  0
  2 18  1  0
  3  4  1  0
  4  5  2  0
  4 17  1  0
  5  6  1  0
  6  7  2  0
  7  8  1  0
  7 16  1  0
  8  9  1  0
  9 10  1  0
 10 11  1  0
 10 15  1  0
 11 12  1  0
 12 13  2  0
 13 14  1  0
 14 15  1  0
 16 17  2  0
 18 19  1  0
 19 20  2  0
 19 24  1  0
 20 21  1  0
 21 22  2  0
 22 23  1  0
 23 24  2  0
M  END
>  <original SMILES>  (337) 
O=C(Nc1ccc(CCN2CC=CCC2)cc1)Nc1cccnc1

>  <AutoDock Predicted Affinity>  (337) 
-6.662307

>  <ref_pdb>  (337) 
x0434_0

>  <ref_mols>  (337) 
x0434_0

>  <creator>  (337) 
Will Poole

>  <energy minimised>  (337) 
True

$$$$
WPC0638_minimised.pdb
     RDKit          3D

 23 25  0  0  0  0  0  0  0  0999 V2000
    8.5800    0.2290   19.9440 O   0  0  0  0  0  0  0  0  0  0  0  0
    7.8300   -0.0800   20.8510 C   0  0  0  0  0  0  0  0  0  0  0  0
    8.2390   -0.4740   22.0990 N   0  0  0  0  0  0  0  0  0  0  0  0
    9.5720   -0.3940   22.5540 C   0  0  0  0  0  0  0  0  0  0  0  0
   10.6230   -0.8230   21.7310 C   0  0  0  0  0  0  0  0  0  0  0  0
   11.9490   -0.5220   22.0570 C   0  0  0  0  0  0  0  0  0  0  0  0
   12.2300    0.1820   23.2360 C   0  0  0  0  0  0  0  0  0  0  0  0
   13.6570    0.6050   23.5260 C   0  0  0  0  0  0  0  0  0  0  0  0
   14.1450    1.7950   22.6750 C   0  0  0  0  0  0  0  0  0  0  0  0
   13.6550    3.1170   23.1190 N   0  0  0  0  0  0  0  0  0  0  0  0
   12.2180    3.4190   22.9780 C   0  0  0  0  0  0  0  0  0  0  0  0
   12.1600    4.9480   23.0480 C   0  0  0  0  0  0  0  0  0  0  0  0
   13.4290    5.3690   22.3000 C   0  0  0  0  0  0  0  0  0  0  0  0
   14.4380    4.2540   22.6100 C   0  0  0  0  0  0  0  0  0  0  0  0
   11.1860    0.4950   24.1280 C   0  0  0  0  0  0  0  0  0  0  0  0
    9.8550    0.2250   23.7780 C   0  0  0  0  0  0  0  0  0  0  0  0
    6.4710   -0.0270   20.7200 N   0  0  0  0  0  0  0  0  0  0  0  0
    5.8050    0.5400   19.6090 C   0  0  0  0  0  0  0  0  0  0  0  0
    4.8400    1.5310   19.8240 C   0  0  0  0  0  0  0  0  0  0  0  0
    4.3180    2.1820   18.7000 C   0  0  0  0  0  0  0  0  0  0  0  0
    4.7800    1.8390   17.4210 C   0  0  0  0  0  0  0  0  0  0  0  0
    5.6710    0.8460   17.2010 N   0  0  0  0  0  0  0  0  0  0  0  0
    6.1810    0.2270   18.2850 C   0  0  0  0  0  0  0  0  0  0  0  0
  1  2  2  0
  2  3  1  0
  2 17  1  0
  3  4  1  0
  4  5  2  0
  4 16  1  0
  5  6  1  0
  6  7  2  0
  7  8  1  0
  7 15  1  0
  8  9  1  0
  9 10  1  0
 10 11  1  0
 10 14  1  0
 11 12  1  0
 12 13  1  0
 13 14  1  0
 15 16  2  0
 17 18  1  0
 18 19  2  0
 18 23  1  0
 19 20  1  0
 20 21  2  0
 21 22  1  0
 22 23  2  0
M  END
>  <original SMILES>  (338) 
O=C(Nc1ccc(CCN2CCCC2)cc1)Nc1cccnc1

>  <AutoDock Predicted Affinity>  (338) 
-6.498637

>  <ref_pdb>  (338) 
x0434_0

>  <ref_mols>  (338) 
x0434_0

>  <creator>  (338) 
Will Poole

>  <energy minimised>  (338) 
True

$$$$
WPC0592_minimised.pdb
     RDKit          3D

 24 26  0  0  0  0  0  0  0  0999 V2000
    8.6640    0.1060   19.9920 O   0  0  0  0  0  0  0  0  0  0  0  0
    7.9390   -0.1200   20.9400 C   0  0  0  0  0  0  0  0  0  0  0  0
    8.3840   -0.3960   22.2060 N   0  0  0  0  0  0  0  0  0  0  0  0
    9.7180   -0.2340   22.6400 C   0  0  0  0  0  0  0  0  0  0  0  0
   10.7830   -0.8240   21.9410 C   0  0  0  0  0  0  0  0  0  0  0  0
   12.1100   -0.5290   22.2930 C   0  0  0  0  0  0  0  0  0  0  0  0
   12.3780    0.3690   23.3390 C   0  0  0  0  0  0  0  0  0  0  0  0
   13.8100    0.7760   23.6620 C   0  0  0  0  0  0  0  0  0  0  0  0
   14.5250    1.5900   22.5660 C   0  0  0  0  0  0  0  0  0  0  0  0
   13.8240    2.7960   22.0800 N   0  0  0  0  0  0  0  0  0  0  0  0
   14.5650    3.4620   20.9880 C   0  0  0  0  0  0  0  0  0  0  0  0
   15.0390    4.8690   21.3730 C   0  0  0  0  0  0  0  0  0  0  0  0
   13.8760    5.7920   21.7730 C   0  0  0  0  0  0  0  0  0  0  0  0
   12.7350    5.0100   22.4640 C   0  0  0  0  0  0  0  0  0  0  0  0
   13.2540    3.7060   23.1000 C   0  0  0  0  0  0  0  0  0  0  0  0
   11.3070    0.8920   24.0870 C   0  0  0  0  0  0  0  0  0  0  0  0
    9.9820    0.5960   23.7360 C   0  0  0  0  0  0  0  0  0  0  0  0
    6.5750   -0.0730   20.8390 N   0  0  0  0  0  0  0  0  0  0  0  0
    5.8750    0.4450   19.7210 C   0  0  0  0  0  0  0  0  0  0  0  0
    4.9080    1.4360   19.9310 C   0  0  0  0  0  0  0  0  0  0  0  0
    4.3330    2.0350   18.8030 C   0  0  0  0  0  0  0  0  0  0  0  0
    4.7380    1.6320   17.5230 C   0  0  0  0  0  0  0  0  0  0  0  0
    5.6310    0.6390   17.3090 N   0  0  0  0  0  0  0  0  0  0  0  0
    6.2020    0.0800   18.3960 C   0  0  0  0  0  0  0  0  0  0  0  0
  1  2  2  0
  2  3  1  0
  2 18  1  0
  3  4  1  0
  4  5  2  0
  4 17  1  0
  5  6  1  0
  6  7  2  0
  7  8  1  0
  7 16  1  0
  8  9  1  0
  9 10  1  0
 10 11  1  0
 10 15  1  0
 11 12  1  0
 12 13  1  0
 13 14  1  0
 14 15  1  0
 16 17  2  0
 18 19  1  0
 19 20  2  0
 19 24  1  0
 20 21  1  0
 21 22  2  0
 22 23  1  0
 23 24  2  0
M  END
>  <original SMILES>  (339) 
O=C(Nc1ccc(CCN2CCCCC2)cc1)Nc1cccnc1

>  <AutoDock Predicted Affinity>  (339) 
-6.74373

>  <ref_pdb>  (339) 
x0434_0

>  <ref_mols>  (339) 
x0434_0

>  <creator>  (339) 
Will Poole

>  <energy minimised>  (339) 
True

$$$$
WPC0939_minimised.pdb
     RDKit          3D

 24 26  0  0  0  0  0  0  0  0999 V2000
    8.7620    0.1440   20.0250 O   0  0  0  0  0  0  0  0  0  0  0  0
    8.0290   -0.1030   20.9630 C   0  0  0  0  0  0  0  0  0  0  0  0
    8.4580   -0.3920   22.2320 N   0  0  0  0  0  0  0  0  0  0  0  0
    9.7800   -0.2030   22.6870 C   0  0  0  0  0  0  0  0  0  0  0  0
   10.8660   -0.7510   21.9880 C   0  0  0  0  0  0  0  0  0  0  0  0
   12.1780   -0.3870   22.3240 C   0  0  0  0  0  0  0  0  0  0  0  0
   12.4080    0.5360   23.3600 C   0  0  0  0  0  0  0  0  0  0  0  0
   13.8050    1.0940   23.5930 C   0  0  0  0  0  0  0  0  0  0  0  0
   14.1120    2.3090   22.6840 C   0  0  0  0  0  0  0  0  0  0  0  0
   13.0880    3.3800   22.7140 N   0  0  0  0  0  0  0  0  0  0  0  0
   13.0360    4.1690   23.9730 C   0  0  0  0  0  0  0  0  0  0  0  0
   12.7990    5.6860   23.7660 C   0  0  0  0  0  0  0  0  0  0  0  0
   13.7810    6.2600   22.8170 N   0  0  0  0  0  0  0  0  0  0  0  0
   13.9830    5.4410   21.5980 C   0  0  0  0  0  0  0  0  0  0  0  0
   13.0210    4.2270   21.5010 C   0  0  0  0  0  0  0  0  0  0  0  0
   11.3230    0.9990   24.1250 C   0  0  0  0  0  0  0  0  0  0  0  0
   10.0110    0.6340   23.7880 C   0  0  0  0  0  0  0  0  0  0  0  0
    6.6660   -0.0690   20.8530 N   0  0  0  0  0  0  0  0  0  0  0  0
    5.9620    0.4470   19.7380 C   0  0  0  0  0  0  0  0  0  0  0  0
    4.9850    1.4270   19.9510 C   0  0  0  0  0  0  0  0  0  0  0  0
    4.3940    2.0140   18.8250 C   0  0  0  0  0  0  0  0  0  0  0  0
    4.7980    1.6140   17.5430 C   0  0  0  0  0  0  0  0  0  0  0  0
    5.7040    0.6340   17.3270 N   0  0  0  0  0  0  0  0  0  0  0  0
    6.2890    0.0840   18.4120 C   0  0  0  0  0  0  0  0  0  0  0  0
  1  2  2  0
  2  3  1  0
  2 18  1  0
  3  4  1  0
  4  5  2  0
  4 17  1  0
  5  6  1  0
  6  7  2  0
  7  8  1  0
  7 16  1  0
  8  9  1  0
  9 10  1  0
 10 11  1  0
 10 15  1  0
 11 12  1  0
 12 13  1  0
 13 14  1  0
 14 15  1  0
 16 17  2  0
 18 19  1  0
 19 20  2  0
 19 24  1  0
 20 21  1  0
 21 22  2  0
 22 23  1  0
 23 24  2  0
M  END
>  <original SMILES>  (340) 
O=C(Nc1ccc(CCN2CCNCC2)cc1)Nc1cccnc1

>  <AutoDock Predicted Affinity>  (340) 
-6.541557

>  <ref_pdb>  (340) 
x0434_0

>  <ref_mols>  (340) 
x0434_0

>  <creator>  (340) 
Will Poole

>  <energy minimised>  (340) 
True

$$$$
WPC0946_minimised.pdb
     RDKit          3D

 22 23  0  0  0  0  0  0  0  0999 V2000
    8.4520   -0.0040   19.8880 O   0  0  0  0  0  0  0  0  0  0  0  0
    7.6750   -0.3110   20.7740 C   0  0  0  0  0  0  0  0  0  0  0  0
    8.0440   -0.7050   22.0330 N   0  0  0  0  0  0  0  0  0  0  0  0
    9.3390   -0.5300   22.5600 C   0  0  0  0  0  0  0  0  0  0  0  0
   10.4650   -0.8920   21.8050 C   0  0  0  0  0  0  0  0  0  0  0  0
   11.7400   -0.4630   22.1900 C   0  0  0  0  0  0  0  0  0  0  0  0
   11.8890    0.3100   23.3510 C   0  0  0  0  0  0  0  0  0  0  0  0
   13.2280    0.9450   23.6560 C   0  0  0  0  0  0  0  0  0  0  0  0
   13.3140    2.3860   23.1080 C   0  0  0  0  0  0  0  0  0  0  0  0
   12.2620    3.2790   23.6060 N   0  0  0  0  0  0  0  0  0  0  0  0
   12.2270    4.6140   23.2670 C   0  0  0  0  0  0  0  0  0  0  0  0
   13.4510    5.3880   22.4340 S   0  0  0  0  0  0  0  0  0  0  0  0
   10.7800    5.4670   23.8980 S   0  0  0  0  0  0  0  0  0  0  0  0
   10.7800    0.5540   24.1820 C   0  0  0  0  0  0  0  0  0  0  0  0
    9.5010    0.1450   23.7780 C   0  0  0  0  0  0  0  0  0  0  0  0
    6.3190   -0.2370   20.6190 N   0  0  0  0  0  0  0  0  0  0  0  0
    5.6780    0.3930   19.5280 C   0  0  0  0  0  0  0  0  0  0  0  0
    4.7240    1.3870   19.7790 C   0  0  0  0  0  0  0  0  0  0  0  0
    4.2160    2.0910   18.6800 C   0  0  0  0  0  0  0  0  0  0  0  0
    4.6800    1.7950   17.3910 C   0  0  0  0  0  0  0  0  0  0  0  0
    5.5660    0.8050   17.1360 N   0  0  0  0  0  0  0  0  0  0  0  0
    6.0630    0.1350   18.1940 C   0  0  0  0  0  0  0  0  0  0  0  0
  1  2  2  0
  2  3  1  0
  2 16  1  0
  3  4  1  0
  4  5  2  0
  4 15  1  0
  5  6  1  0
  6  7  2  0
  7  8  1  0
  7 14  1  0
  8  9  1  0
  9 10  1  0
 10 11  1  0
 11 12  2  0
 11 13  1  0
 14 15  2  0
 16 17  1  0
 17 18  2  0
 17 22  1  0
 18 19  1  0
 19 20  2  0
 20 21  1  0
 21 22  2  0
M  END
>  <original SMILES>  (341) 
O=C(Nc1ccc(CCNC(=S)S)cc1)Nc1cccnc1

>  <AutoDock Predicted Affinity>  (341) 
-5.757105

>  <ref_pdb>  (341) 
x0434_0

>  <ref_mols>  (341) 
x0434_0

>  <creator>  (341) 
Will Poole

>  <energy minimised>  (341) 
True

$$$$
WPC0955_minimised.pdb
     RDKit          3D

 19 20  0  0  0  0  0  0  0  0999 V2000
    8.3920    0.0170   19.8110 O   0  0  0  0  0  0  0  0  0  0  0  0
    7.6240   -0.2830   20.7070 C   0  0  0  0  0  0  0  0  0  0  0  0
    8.0040   -0.6290   21.9770 N   0  0  0  0  0  0  0  0  0  0  0  0
    9.2740   -0.3310   22.5110 C   0  0  0  0  0  0  0  0  0  0  0  0
   10.4350   -0.6110   21.7750 C   0  0  0  0  0  0  0  0  0  0  0  0
   11.6570   -0.0380   22.1460 C   0  0  0  0  0  0  0  0  0  0  0  0
   11.7200    0.7910   23.2750 C   0  0  0  0  0  0  0  0  0  0  0  0
   12.9930    1.5490   23.5780 C   0  0  0  0  0  0  0  0  0  0  0  0
   12.8800    3.0600   23.2560 C   0  0  0  0  0  0  0  0  0  0  0  0
   11.9490    3.7100   24.1180 O   0  0  0  0  0  0  0  0  0  0  0  0
   10.5880    0.9470   24.0970 C   0  0  0  0  0  0  0  0  0  0  0  0
    9.3590    0.4000   23.7030 C   0  0  0  0  0  0  0  0  0  0  0  0
    6.2680   -0.2270   20.5550 N   0  0  0  0  0  0  0  0  0  0  0  0
    5.6270    0.4150   19.4700 C   0  0  0  0  0  0  0  0  0  0  0  0
    4.6860    1.4200   19.7310 C   0  0  0  0  0  0  0  0  0  0  0  0
    4.1920    2.1460   18.6400 C   0  0  0  0  0  0  0  0  0  0  0  0
    4.6610    1.8630   17.3490 C   0  0  0  0  0  0  0  0  0  0  0  0
    5.5380    0.8680   17.0860 N   0  0  0  0  0  0  0  0  0  0  0  0
    6.0170    0.1730   18.1360 C   0  0  0  0  0  0  0  0  0  0  0  0
  1  2  2  0
  2  3  1  0
  2 13  1  0
  3  4  1  0
  4  5  2  0
  4 12  1  0
  5  6  1  0
  6  7  2  0
  7  8  1  0
  7 11  1  0
  8  9  1  0
  9 10  1  0
 11 12  2  0
 13 14  1  0
 14 15  2  0
 14 19  1  0
 15 16  1  0
 16 17  2  0
 17 18  1  0
 18 19  2  0
M  END
>  <original SMILES>  (342) 
O=C(Nc1ccc(CCO)cc1)Nc1cccnc1

>  <AutoDock Predicted Affinity>  (342) 
-5.176433

>  <ref_pdb>  (342) 
x0434_0

>  <ref_mols>  (342) 
x0434_0

>  <creator>  (342) 
Will Poole

>  <energy minimised>  (342) 
True

$$$$
WPC0891_minimised.pdb
     RDKit          3D

 23 25  0  0  0  0  0  0  0  0999 V2000
    8.4810    0.3040   19.9100 O   0  0  0  0  0  0  0  0  0  0  0  0
    7.8000    0.1700   20.9060 C   0  0  0  0  0  0  0  0  0  0  0  0
    8.3150   -0.0340   22.1570 N   0  0  0  0  0  0  0  0  0  0  0  0
    9.6910    0.0200   22.4660 C   0  0  0  0  0  0  0  0  0  0  0  0
   10.6120   -0.7660   21.7560 C   0  0  0  0  0  0  0  0  0  0  0  0
   11.9900   -0.6290   21.9850 C   0  0  0  0  0  0  0  0  0  0  0  0
   12.4550    0.2930   22.9390 C   0  0  0  0  0  0  0  0  0  0  0  0
   13.9440    0.4430   23.2160 C   0  0  0  0  0  0  0  0  0  0  0  0
   14.6000    1.6770   22.5670 C   0  0  0  0  0  0  0  0  0  0  0  0
   13.8580    2.8480   22.9550 O   0  0  0  0  0  0  0  0  0  0  0  0
   14.4190    4.1080   22.5520 C   0  0  0  0  0  0  0  0  0  0  0  0
   13.3540    5.2060   22.5930 C   0  0  0  0  0  0  0  0  0  0  0  0
   11.8940    4.9230   22.8800 C   0  0  0  0  0  0  0  0  0  0  0  0
   12.7430    5.6310   23.9070 C   0  0  0  0  0  0  0  0  0  0  0  0
   11.5250    1.0500   23.6750 C   0  0  0  0  0  0  0  0  0  0  0  0
   10.1490    0.9190   23.4380 C   0  0  0  0  0  0  0  0  0  0  0  0
    6.4340    0.2450   20.8610 N   0  0  0  0  0  0  0  0  0  0  0  0
    5.7040    0.7030   19.7360 C   0  0  0  0  0  0  0  0  0  0  0  0
    4.7470    1.7080   19.9160 C   0  0  0  0  0  0  0  0  0  0  0  0
    4.1650    2.2650   18.7700 C   0  0  0  0  0  0  0  0  0  0  0  0
    4.5630    1.8160   17.5020 C   0  0  0  0  0  0  0  0  0  0  0  0
    5.4410    0.8030   17.3190 N   0  0  0  0  0  0  0  0  0  0  0  0
    6.0070    0.2760   18.4230 C   0  0  0  0  0  0  0  0  0  0  0  0
  1  2  2  0
  2  3  1  0
  2 17  1  0
  3  4  1  0
  4  5  2  0
  4 16  1  0
  5  6  1  0
  6  7  2  0
  7  8  1  0
  7 15  1  0
  8  9  1  0
  9 10  1  0
 10 11  1  0
 11 12  1  0
 12 13  1  0
 12 14  1  0
 13 14  1  0
 15 16  2  0
 17 18  1  0
 18 19  2  0
 18 23  1  0
 19 20  1  0
 20 21  2  0
 21 22  1  0
 22 23  2  0
M  END
>  <original SMILES>  (343) 
O=C(Nc1ccc(CCOCC2CC2)cc1)Nc1cccnc1

>  <AutoDock Predicted Affinity>  (343) 
-6.107387

>  <ref_pdb>  (343) 
x0434_0

>  <ref_mols>  (343) 
x0434_0

>  <creator>  (343) 
Will Poole

>  <energy minimised>  (343) 
True

$$$$
WPC0986_minimised.pdb
     RDKit          3D

 24 26  0  0  0  0  0  0  0  0999 V2000
    8.3790   -0.0480   19.9030 O   0  0  0  0  0  0  0  0  0  0  0  0
    7.5830   -0.3540   20.7710 C   0  0  0  0  0  0  0  0  0  0  0  0
    7.9170   -0.8020   22.0230 N   0  0  0  0  0  0  0  0  0  0  0  0
    9.2040   -0.6560   22.5820 C   0  0  0  0  0  0  0  0  0  0  0  0
   10.3420   -0.9750   21.8270 C   0  0  0  0  0  0  0  0  0  0  0  0
   11.6020   -0.5130   22.2220 C   0  0  0  0  0  0  0  0  0  0  0  0
   11.7250    0.2350   23.4030 C   0  0  0  0  0  0  0  0  0  0  0  0
   13.0170    0.9700   23.6900 C   0  0  0  0  0  0  0  0  0  0  0  0
   12.8610    2.4630   23.3300 C   0  0  0  0  0  0  0  0  0  0  0  0
   11.9770    3.0700   24.2780 O   0  0  0  0  0  0  0  0  0  0  0  0
   11.7500    4.4690   24.0140 N   0  0  0  0  0  0  0  0  0  0  0  0
   12.5480    5.4430   24.5400 C   0  0  0  0  0  0  0  0  0  0  0  0
   11.7540    6.5500   24.5830 C   0  0  0  0  0  0  0  0  0  0  0  0
   10.5160    6.2890   24.0350 N   0  0  0  0  0  0  0  0  0  0  0  0
   10.5280    5.0110   23.6860 C   0  0  0  0  0  0  0  0  0  0  0  0
   10.6090    0.4150   24.2410 C   0  0  0  0  0  0  0  0  0  0  0  0
    9.3430   -0.0180   23.8210 C   0  0  0  0  0  0  0  0  0  0  0  0
    6.2340   -0.2250   20.6010 N   0  0  0  0  0  0  0  0  0  0  0  0
    5.6310    0.4380   19.5070 C   0  0  0  0  0  0  0  0  0  0  0  0
    4.6960    1.4510   19.7520 C   0  0  0  0  0  0  0  0  0  0  0  0
    4.2230    2.1780   18.6510 C   0  0  0  0  0  0  0  0  0  0  0  0
    4.7030    1.8840   17.3670 C   0  0  0  0  0  0  0  0  0  0  0  0
    5.5760    0.8820   17.1190 N   0  0  0  0  0  0  0  0  0  0  0  0
    6.0370    0.1880   18.1780 C   0  0  0  0  0  0  0  0  0  0  0  0
  1  2  2  0
  2  3  1  0
  2 18  1  0
  3  4  1  0
  4  5  2  0
  4 17  1  0
  5  6  1  0
  6  7  2  0
  7  8  1  0
  7 16  1  0
  8  9  1  0
  9 10  1  0
 10 11  1  0
 11 12  1  0
 11 15  1  0
 12 13  2  0
 13 14  1  0
 14 15  2  0
 16 17  2  0
 18 19  1  0
 19 20  2  0
 19 24  1  0
 20 21  1  0
 21 22  2  0
 22 23  1  0
 23 24  2  0
M  END
>  <original SMILES>  (344) 
O=C(Nc1ccc(CCOn2ccnc2)cc1)Nc1cccnc1

>  <AutoDock Predicted Affinity>  (344) 
-6.04842

>  <ref_pdb>  (344) 
x0434_0

>  <ref_mols>  (344) 
x0434_0

>  <creator>  (344) 
Will Poole

>  <energy minimised>  (344) 
True

$$$$
WPC0755_minimised.pdb
     RDKit          3D

 22 23  0  0  0  0  0  0  0  0999 V2000
    9.1360    0.4900   20.6680 O   0  0  0  0  0  0  0  0  0  0  0  0
    8.5320   -0.4180   21.1790 C   0  0  0  0  0  0  0  0  0  0  0  0
    9.0160   -1.2200   22.1600 N   0  0  0  0  0  0  0  0  0  0  0  0
   10.2370   -0.7990   22.7270 C   0  0  0  0  0  0  0  0  0  0  0  0
   11.3640   -1.2010   22.0670 C   0  0  0  0  0  0  0  0  0  0  0  0
   12.5710   -0.5460   22.3740 C   0  0  0  0  0  0  0  0  0  0  0  0
   12.5460    0.4700   23.3050 C   0  0  0  0  0  0  0  0  0  0  0  0
   13.8970    1.0560   23.7460 C   0  0  0  0  0  0  0  0  0  0  0  0
   14.5810    1.9470   22.7050 C   0  0  0  0  0  0  0  0  0  0  0  0
   13.5610    3.3250   22.3050 P   0  0  0  0  0  0  0  0  0  0  0  0
   12.7380    4.4170   23.4200 O   0  0  0  0  0  0  0  0  0  0  0  0
   14.1250    4.4120   21.3510 O   0  0  0  0  0  0  0  0  0  0  0  0
   13.8560    4.1930   23.5550 O   0  0  0  0  0  0  0  0  0  0  0  0
   11.4390    0.6960   24.1420 C   0  0  0  0  0  0  0  0  0  0  0  0
   10.2640    0.0730   23.7860 C   0  0  0  0  0  0  0  0  0  0  0  0
    7.2100   -0.6590   20.8870 N   0  0  0  0  0  0  0  0  0  0  0  0
    6.5310   -0.0190   19.8320 C   0  0  0  0  0  0  0  0  0  0  0  0
    5.3900    0.7290   20.1200 C   0  0  0  0  0  0  0  0  0  0  0  0
    4.8200    1.4590   19.0800 C   0  0  0  0  0  0  0  0  0  0  0  0
    5.3590    1.3580   17.7970 C   0  0  0  0  0  0  0  0  0  0  0  0
    6.4480    0.6240   17.5120 N   0  0  0  0  0  0  0  0  0  0  0  0
    7.0480   -0.0160   18.5230 C   0  0  0  0  0  0  0  0  0  0  0  0
  1  2  2  0
  2  3  1  0
  2 16  1  0
  3  4  1  0
  4  5  2  0
  4 15  1  0
  5  6  1  0
  6  7  2  0
  7  8  1  0
  7 14  1  0
  8  9  1  0
  9 10  1  0
 10 11  2  0
 10 12  1  0
 10 13  1  0
 14 15  2  0
 16 17  1  0
 17 18  2  0
 17 22  1  0
 18 19  1  0
 19 20  2  0
 20 21  1  0
 21 22  2  0
M  END
>  <original SMILES>  (345) 
O=C(Nc1ccc(CCP(=O)(O)O)cc1)Nc1cccnc1

>  <AutoDock Predicted Affinity>  (345) 
-5.52052

>  <ref_pdb>  (345) 
x0434_0

>  <ref_mols>  (345) 
x0434_0

>  <creator>  (345) 
Will Poole

>  <energy minimised>  (345) 
True

$$$$
WPC0682_minimised.pdb
     RDKit          3D

 24 26  0  0  0  0  0  0  0  0999 V2000
    8.5460    0.1020   19.9630 O   0  0  0  0  0  0  0  0  0  0  0  0
    7.8020   -0.2180   20.8710 C   0  0  0  0  0  0  0  0  0  0  0  0
    8.2220   -0.6070   22.1180 N   0  0  0  0  0  0  0  0  0  0  0  0
    9.5440   -0.4520   22.5850 C   0  0  0  0  0  0  0  0  0  0  0  0
   10.6250   -0.8410   21.7800 C   0  0  0  0  0  0  0  0  0  0  0  0
   11.9240   -0.4240   22.0880 C   0  0  0  0  0  0  0  0  0  0  0  0
   12.1470    0.3630   23.2280 C   0  0  0  0  0  0  0  0  0  0  0  0
   13.5050    1.0010   23.4380 C   0  0  0  0  0  0  0  0  0  0  0  0
   13.6990    2.2770   22.5810 C   0  0  0  0  0  0  0  0  0  0  0  0
   12.8460    3.4760   23.0000 C   0  0  0  0  0  0  0  0  0  0  0  0
   13.4530    4.6290   23.5310 C   0  0  0  0  0  0  0  0  0  0  0  0
   12.6720    5.7130   23.9670 C   0  0  0  0  0  0  0  0  0  0  0  0
   11.2760    5.6720   23.8370 C   0  0  0  0  0  0  0  0  0  0  0  0
   10.6670    4.5550   23.2490 C   0  0  0  0  0  0  0  0  0  0  0  0
   11.4500    3.4710   22.8210 C   0  0  0  0  0  0  0  0  0  0  0  0
   11.0840    0.6340   24.1110 C   0  0  0  0  0  0  0  0  0  0  0  0
    9.7800    0.2380   23.7820 C   0  0  0  0  0  0  0  0  0  0  0  0
    6.4420   -0.1730   20.7420 N   0  0  0  0  0  0  0  0  0  0  0  0
    5.7720    0.4130   19.6400 C   0  0  0  0  0  0  0  0  0  0  0  0
    4.8220    1.4140   19.8740 C   0  0  0  0  0  0  0  0  0  0  0  0
    4.2900    2.0790   18.7610 C   0  0  0  0  0  0  0  0  0  0  0  0
    4.7270    1.7350   17.4730 C   0  0  0  0  0  0  0  0  0  0  0  0
    5.6090    0.7370   17.2350 N   0  0  0  0  0  0  0  0  0  0  0  0
    6.1310    0.1090   18.3080 C   0  0  0  0  0  0  0  0  0  0  0  0
  1  2  2  0
  2  3  1  0
  2 18  1  0
  3  4  1  0
  4  5  2  0
  4 17  1  0
  5  6  1  0
  6  7  2  0
  7  8  1  0
  7 16  1  0
  8  9  1  0
  9 10  1  0
 10 11  2  0
 10 15  1  0
 11 12  1  0
 12 13  2  0
 13 14  1  0
 14 15  2  0
 16 17  2  0
 18 19  1  0
 19 20  2  0
 19 24  1  0
 20 21  1  0
 21 22  2  0
 22 23  1  0
 23 24  2  0
M  END
>  <original SMILES>  (346) 
O=C(Nc1ccc(CCc2ccccc2)cc1)Nc1cccnc1

>  <AutoDock Predicted Affinity>  (346) 
-6.79309

>  <ref_pdb>  (346) 
x0434_0

>  <ref_mols>  (346) 
x0434_0

>  <creator>  (346) 
Will Poole

>  <energy minimised>  (346) 
True

$$$$
WPC0605_minimised.pdb
     RDKit          3D

 24 26  0  0  0  0  0  0  0  0999 V2000
    8.5760   -0.2100   19.9470 O   0  0  0  0  0  0  0  0  0  0  0  0
    7.8280   -0.4250   20.8830 C   0  0  0  0  0  0  0  0  0  0  0  0
    8.2350   -0.7950   22.1400 N   0  0  0  0  0  0  0  0  0  0  0  0
    9.5690   -0.7050   22.5960 C   0  0  0  0  0  0  0  0  0  0  0  0
   10.6200   -1.1910   21.8070 C   0  0  0  0  0  0  0  0  0  0  0  0
   11.9460   -0.8420   22.0940 C   0  0  0  0  0  0  0  0  0  0  0  0
   12.2260   -0.0290   23.2030 C   0  0  0  0  0  0  0  0  0  0  0  0
   13.6260    0.5310   23.3950 C   0  0  0  0  0  0  0  0  0  0  0  0
   13.9410    1.7070   22.4370 C   0  0  0  0  0  0  0  0  0  0  0  0
   13.1290    2.9740   22.6850 C   0  0  0  0  0  0  0  0  0  0  0  0
   13.7380    4.1910   23.0440 C   0  0  0  0  0  0  0  0  0  0  0  0
   12.9310    5.3090   23.3150 C   0  0  0  0  0  0  0  0  0  0  0  0
   11.5410    5.1620   23.2040 C   0  0  0  0  0  0  0  0  0  0  0  0
   11.0190    3.9260   22.7980 C   0  0  0  0  0  0  0  0  0  0  0  0
   11.8000    2.8660   22.5400 N   0  0  0  0  0  0  0  0  0  0  0  0
   11.1820    0.3370   24.0760 C   0  0  0  0  0  0  0  0  0  0  0  0
    9.8530    0.0120   23.7660 C   0  0  0  0  0  0  0  0  0  0  0  0
    6.4740   -0.2660   20.7760 N   0  0  0  0  0  0  0  0  0  0  0  0
    5.8200    0.3440   19.6770 C   0  0  0  0  0  0  0  0  0  0  0  0
    4.8880    1.3610   19.9180 C   0  0  0  0  0  0  0  0  0  0  0  0
    4.3550    2.0330   18.8110 C   0  0  0  0  0  0  0  0  0  0  0  0
    4.7730    1.6820   17.5190 C   0  0  0  0  0  0  0  0  0  0  0  0
    5.6370    0.6720   17.2730 N   0  0  0  0  0  0  0  0  0  0  0  0
    6.1600    0.0340   18.3400 C   0  0  0  0  0  0  0  0  0  0  0  0
  1  2  2  0
  2  3  1  0
  2 18  1  0
  3  4  1  0
  4  5  2  0
  4 17  1  0
  5  6  1  0
  6  7  2  0
  7  8  1  0
  7 16  1  0
  8  9  1  0
  9 10  1  0
 10 11  2  0
 10 15  1  0
 11 12  1  0
 12 13  2  0
 13 14  1  0
 14 15  2  0
 16 17  2  0
 18 19  1  0
 19 20  2  0
 19 24  1  0
 20 21  1  0
 21 22  2  0
 22 23  1  0
 23 24  2  0
M  END
>  <original SMILES>  (347) 
O=C(Nc1ccc(CCc2ccccn2)cc1)Nc1cccnc1

>  <AutoDock Predicted Affinity>  (347) 
-6.631825

>  <ref_pdb>  (347) 
x0434_0

>  <ref_mols>  (347) 
x0434_0

>  <creator>  (347) 
Will Poole

>  <energy minimised>  (347) 
True

$$$$
WPC1028_minimised.pdb
     RDKit          3D

 24 26  0  0  0  0  0  0  0  0999 V2000
    8.5350   -0.0160   19.8380 O   0  0  0  0  0  0  0  0  0  0  0  0
    7.7740   -0.3250   20.7370 C   0  0  0  0  0  0  0  0  0  0  0  0
    8.1610   -0.7180   21.9920 N   0  0  0  0  0  0  0  0  0  0  0  0
    9.4500   -0.5010   22.5220 C   0  0  0  0  0  0  0  0  0  0  0  0
   10.5900   -0.7690   21.7500 C   0  0  0  0  0  0  0  0  0  0  0  0
   11.8370   -0.2700   22.1390 C   0  0  0  0  0  0  0  0  0  0  0  0
   11.9470    0.4750   23.3220 C   0  0  0  0  0  0  0  0  0  0  0  0
   13.2410    1.1950   23.6230 C   0  0  0  0  0  0  0  0  0  0  0  0
   13.3670    2.5450   22.8720 C   0  0  0  0  0  0  0  0  0  0  0  0
   12.4960    3.6990   23.3560 C   0  0  0  0  0  0  0  0  0  0  0  0
   13.1060    4.8850   23.7920 C   0  0  0  0  0  0  0  0  0  0  0  0
   12.2910    5.9600   24.1670 C   0  0  0  0  0  0  0  0  0  0  0  0
   10.8990    5.8200   24.0690 C   0  0  0  0  0  0  0  0  0  0  0  0
   10.3030    4.6990   23.6430 N   0  0  0  0  0  0  0  0  0  0  0  0
   11.0870    3.6720   23.2590 C   0  0  0  0  0  0  0  0  0  0  0  0
   10.8360    0.6100   24.1750 C   0  0  0  0  0  0  0  0  0  0  0  0
    9.5810    0.1360   23.7640 C   0  0  0  0  0  0  0  0  0  0  0  0
    6.4170   -0.2500   20.5990 N   0  0  0  0  0  0  0  0  0  0  0  0
    5.7610    0.3880   19.5200 C   0  0  0  0  0  0  0  0  0  0  0  0
    4.8170    1.3870   19.7880 C   0  0  0  0  0  0  0  0  0  0  0  0
    4.2930    2.0960   18.6990 C   0  0  0  0  0  0  0  0  0  0  0  0
    4.7350    1.8000   17.4010 C   0  0  0  0  0  0  0  0  0  0  0  0
    5.6120    0.8070   17.1310 N   0  0  0  0  0  0  0  0  0  0  0  0
    6.1240    0.1330   18.1800 C   0  0  0  0  0  0  0  0  0  0  0  0
  1  2  2  0
  2  3  1  0
  2 18  1  0
  3  4  1  0
  4  5  2  0
  4 17  1  0
  5  6  1  0
  6  7  2  0
  7  8  1  0
  7 16  1  0
  8  9  1  0
  9 10  1  0
 10 11  2  0
 10 15  1  0
 11 12  1  0
 12 13  2  0
 13 14  1  0
 14 15  2  0
 16 17  2  0
 18 19  1  0
 19 20  2  0
 19 24  1  0
 20 21  1  0
 21 22  2  0
 22 23  1  0
 23 24  2  0
M  END
>  <original SMILES>  (348) 
O=C(Nc1ccc(CCc2cccnc2)cc1)Nc1cccnc1

>  <AutoDock Predicted Affinity>  (348) 
-6.71881

>  <ref_pdb>  (348) 
x0434_0

>  <ref_mols>  (348) 
x0434_0

>  <creator>  (348) 
Will Poole

>  <energy minimised>  (348) 
True

$$$$
WPC0506_minimised.pdb
     RDKit          3D

 24 26  0  0  0  0  0  0  0  0999 V2000
    8.4850    0.1340   19.9080 O   0  0  0  0  0  0  0  0  0  0  0  0
    7.7500   -0.2200   20.8110 C   0  0  0  0  0  0  0  0  0  0  0  0
    8.1790   -0.5990   22.0560 N   0  0  0  0  0  0  0  0  0  0  0  0
    9.4840   -0.3600   22.5360 C   0  0  0  0  0  0  0  0  0  0  0  0
   10.5960   -0.6610   21.7350 C   0  0  0  0  0  0  0  0  0  0  0  0
   11.8580   -0.1550   22.0620 C   0  0  0  0  0  0  0  0  0  0  0  0
   12.0130    0.6290   23.2140 C   0  0  0  0  0  0  0  0  0  0  0  0
   13.3320    1.3250   23.4640 C   0  0  0  0  0  0  0  0  0  0  0  0
   13.4410    2.6890   22.7370 C   0  0  0  0  0  0  0  0  0  0  0  0
   12.5400    3.8090   23.2550 C   0  0  0  0  0  0  0  0  0  0  0  0
   11.1520    3.8180   23.0490 C   0  0  0  0  0  0  0  0  0  0  0  0
   10.3870    4.9080   23.4960 C   0  0  0  0  0  0  0  0  0  0  0  0
   10.9230    5.9640   24.1420 N   0  0  0  0  0  0  0  0  0  0  0  0
   12.2570    5.9770   24.3140 C   0  0  0  0  0  0  0  0  0  0  0  0
   13.0920    4.9390   23.8700 C   0  0  0  0  0  0  0  0  0  0  0  0
   10.9280    0.8160   24.0900 C   0  0  0  0  0  0  0  0  0  0  0  0
    9.6580    0.3320   23.7430 C   0  0  0  0  0  0  0  0  0  0  0  0
    6.3900   -0.2180   20.6790 N   0  0  0  0  0  0  0  0  0  0  0  0
    5.7140    0.3800   19.5890 C   0  0  0  0  0  0  0  0  0  0  0  0
    4.7640    1.3770   19.8380 C   0  0  0  0  0  0  0  0  0  0  0  0
    4.2430    2.0680   18.7360 C   0  0  0  0  0  0  0  0  0  0  0  0
    4.6900    1.7520   17.4450 C   0  0  0  0  0  0  0  0  0  0  0  0
    5.5700    0.7560   17.1920 N   0  0  0  0  0  0  0  0  0  0  0  0
    6.0810    0.1020   18.2540 C   0  0  0  0  0  0  0  0  0  0  0  0
  1  2  2  0
  2  3  1  0
  2 18  1  0
  3  4  1  0
  4  5  2  0
  4 17  1  0
  5  6  1  0
  6  7  2  0
  7  8  1  0
  7 16  1  0
  8  9  1  0
  9 10  1  0
 10 11  2  0
 10 15  1  0
 11 12  1  0
 12 13  2  0
 13 14  1  0
 14 15  2  0
 16 17  2  0
 18 19  1  0
 19 20  2  0
 19 24  1  0
 20 21  1  0
 21 22  2  0
 22 23  1  0
 23 24  2  0
M  END
>  <original SMILES>  (349) 
O=C(Nc1ccc(CCc2ccncc2)cc1)Nc1cccnc1

>  <AutoDock Predicted Affinity>  (349) 
-6.696915

>  <ref_pdb>  (349) 
x0434_0

>  <ref_mols>  (349) 
x0434_0

>  <creator>  (349) 
Will Poole

>  <energy minimised>  (349) 
True

$$$$
WPC0426_minimised.pdb
     RDKit          3D

 23 25  0  0  0  0  0  0  0  0999 V2000
    8.5630    0.3200   19.9330 O   0  0  0  0  0  0  0  0  0  0  0  0
    7.8310    0.0380   20.8620 C   0  0  0  0  0  0  0  0  0  0  0  0
    8.2790   -0.2730   22.1170 N   0  0  0  0  0  0  0  0  0  0  0  0
    9.6270   -0.1550   22.5090 C   0  0  0  0  0  0  0  0  0  0  0  0
   10.6310   -0.7920   21.7660 C   0  0  0  0  0  0  0  0  0  0  0  0
   11.9810   -0.5190   22.0210 C   0  0  0  0  0  0  0  0  0  0  0  0
   12.3280    0.3810   23.0400 C   0  0  0  0  0  0  0  0  0  0  0  0
   13.7820    0.7420   23.2700 C   0  0  0  0  0  0  0  0  0  0  0  0
   14.2590    1.9060   22.3770 C   0  0  0  0  0  0  0  0  0  0  0  0
   13.5610    3.2170   22.6240 C   0  0  0  0  0  0  0  0  0  0  0  0
   12.2580    3.4870   22.2840 N   0  0  0  0  0  0  0  0  0  0  0  0
   11.9940    4.7770   22.6810 C   0  0  0  0  0  0  0  0  0  0  0  0
   13.1620    5.2470   23.2130 C   0  0  0  0  0  0  0  0  0  0  0  0
   14.1310    4.2730   23.1730 N   0  0  0  0  0  0  0  0  0  0  0  0
   11.3210    0.9590   23.8350 C   0  0  0  0  0  0  0  0  0  0  0  0
    9.9700    0.6970   23.5660 C   0  0  0  0  0  0  0  0  0  0  0  0
    6.4680    0.0460   20.7500 N   0  0  0  0  0  0  0  0  0  0  0  0
    5.7710    0.5630   19.6330 C   0  0  0  0  0  0  0  0  0  0  0  0
    4.7890    1.5390   19.8400 C   0  0  0  0  0  0  0  0  0  0  0  0
    4.2340    2.1520   18.7100 C   0  0  0  0  0  0  0  0  0  0  0  0
    4.6820    1.7860   17.4330 C   0  0  0  0  0  0  0  0  0  0  0  0
    5.5880    0.8050   17.2200 N   0  0  0  0  0  0  0  0  0  0  0  0
    6.1300    0.2230   18.3100 C   0  0  0  0  0  0  0  0  0  0  0  0
  1  2  2  0
  2  3  1  0
  2 17  1  0
  3  4  1  0
  4  5  2  0
  4 16  1  0
  5  6  1  0
  6  7  2  0
  7  8  1  0
  7 15  1  0
  8  9  1  0
  9 10  1  0
 10 11  1  0
 10 14  2  0
 11 12  1  0
 12 13  2  0
 13 14  1  0
 15 16  2  0
 17 18  1  0
 18 19  2  0
 18 23  1  0
 19 20  1  0
 20 21  2  0
 21 22  1  0
 22 23  2  0
M  END
>  <original SMILES>  (350) 
O=C(Nc1ccc(CCc2ncc[nH]2)cc1)Nc1cccnc1

>  <AutoDock Predicted Affinity>  (350) 
-6.75534

>  <ref_pdb>  (350) 
x0434_0

>  <ref_mols>  (350) 
x0434_0

>  <creator>  (350) 
Will Poole

>  <energy minimised>  (350) 
True

$$$$
WPC0501_minimised.pdb
     RDKit          3D

 23 25  0  0  0  0  0  0  0  0999 V2000
    8.6290    0.1930   19.9390 O   0  0  0  0  0  0  0  0  0  0  0  0
    7.8900   -0.0500   20.8750 C   0  0  0  0  0  0  0  0  0  0  0  0
    8.3240   -0.3700   22.1330 N   0  0  0  0  0  0  0  0  0  0  0  0
    9.6700   -0.2810   22.5380 C   0  0  0  0  0  0  0  0  0  0  0  0
   10.6690   -0.9190   21.7890 C   0  0  0  0  0  0  0  0  0  0  0  0
   12.0210   -0.6420   22.0310 C   0  0  0  0  0  0  0  0  0  0  0  0
   12.3740    0.2590   23.0470 C   0  0  0  0  0  0  0  0  0  0  0  0
   13.8230    0.6600   23.2360 C   0  0  0  0  0  0  0  0  0  0  0  0
   14.2540    1.8110   22.3040 C   0  0  0  0  0  0  0  0  0  0  0  0
   13.5890    3.1030   22.5480 N   0  0  0  0  0  0  0  0  0  0  0  0
   14.2280    4.2560   22.9960 C   0  0  0  0  0  0  0  0  0  0  0  0
   13.2650    5.2220   23.1100 C   0  0  0  0  0  0  0  0  0  0  0  0
   12.0390    4.6800   22.6770 C   0  0  0  0  0  0  0  0  0  0  0  0
   12.2490    3.3850   22.2960 C   0  0  0  0  0  0  0  0  0  0  0  0
   11.3720    0.8230   23.8600 C   0  0  0  0  0  0  0  0  0  0  0  0
   10.0200    0.5620   23.6000 C   0  0  0  0  0  0  0  0  0  0  0  0
    6.5300    0.0110   20.7670 N   0  0  0  0  0  0  0  0  0  0  0  0
    5.8420    0.5420   19.6500 C   0  0  0  0  0  0  0  0  0  0  0  0
    4.8730    1.5300   19.8580 C   0  0  0  0  0  0  0  0  0  0  0  0
    4.3170    2.1420   18.7280 C   0  0  0  0  0  0  0  0  0  0  0  0
    4.7530    1.7640   17.4500 C   0  0  0  0  0  0  0  0  0  0  0  0
    5.6480    0.7730   17.2380 N   0  0  0  0  0  0  0  0  0  0  0  0
    6.1900    0.1910   18.3270 C   0  0  0  0  0  0  0  0  0  0  0  0
  1  2  2  0
  2  3  1  0
  2 17  1  0
  3  4  1  0
  4  5  2  0
  4 16  1  0
  5  6  1  0
  6  7  2  0
  7  8  1  0
  7 15  1  0
  8  9  1  0
  9 10  1  0
 10 11  1  0
 10 14  1  0
 11 12  2  0
 12 13  1  0
 13 14  2  0
 15 16  2  0
 17 18  1  0
 18 19  2  0
 18 23  1  0
 19 20  1  0
 20 21  2  0
 21 22  1  0
 22 23  2  0
M  END
>  <original SMILES>  (351) 
O=C(Nc1ccc(CCn2cccc2)cc1)Nc1cccnc1

>  <AutoDock Predicted Affinity>  (351) 
-6.33633

>  <ref_pdb>  (351) 
x0434_0

>  <ref_mols>  (351) 
x0434_0

>  <creator>  (351) 
Will Poole

>  <energy minimised>  (351) 
True

$$$$
WPC0582_minimised.pdb
     RDKit          3D

 23 25  0  0  0  0  0  0  0  0999 V2000
    8.6080    0.2430   19.9420 O   0  0  0  0  0  0  0  0  0  0  0  0
    7.8650   -0.0110   20.8720 C   0  0  0  0  0  0  0  0  0  0  0  0
    8.2970   -0.3330   22.1310 N   0  0  0  0  0  0  0  0  0  0  0  0
    9.6430   -0.2450   22.5350 C   0  0  0  0  0  0  0  0  0  0  0  0
   10.6400   -0.8950   21.7930 C   0  0  0  0  0  0  0  0  0  0  0  0
   11.9920   -0.6270   22.0380 C   0  0  0  0  0  0  0  0  0  0  0  0
   12.3490    0.2790   23.0500 C   0  0  0  0  0  0  0  0  0  0  0  0
   13.8010    0.6690   23.2380 C   0  0  0  0  0  0  0  0  0  0  0  0
   14.2410    1.8000   22.2860 C   0  0  0  0  0  0  0  0  0  0  0  0
   13.5740    3.0950   22.4990 N   0  0  0  0  0  0  0  0  0  0  0  0
   12.2530    3.4040   22.2470 C   0  0  0  0  0  0  0  0  0  0  0  0
   12.0810    4.7060   22.6360 C   0  0  0  0  0  0  0  0  0  0  0  0
   13.2690    5.2260   23.0790 N   0  0  0  0  0  0  0  0  0  0  0  0
   14.1600    4.2640   22.9420 C   0  0  0  0  0  0  0  0  0  0  0  0
   11.3500    0.8570   23.8550 C   0  0  0  0  0  0  0  0  0  0  0  0
    9.9960    0.6020   23.5930 C   0  0  0  0  0  0  0  0  0  0  0  0
    6.5040    0.0390   20.7570 N   0  0  0  0  0  0  0  0  0  0  0  0
    5.8170    0.5620   19.6360 C   0  0  0  0  0  0  0  0  0  0  0  0
    4.8350    1.5380   19.8380 C   0  0  0  0  0  0  0  0  0  0  0  0
    4.2800    2.1460   18.7060 C   0  0  0  0  0  0  0  0  0  0  0  0
    4.7300    1.7770   17.4300 C   0  0  0  0  0  0  0  0  0  0  0  0
    5.6370    0.7950   17.2220 N   0  0  0  0  0  0  0  0  0  0  0  0
    6.1780    0.2180   18.3140 C   0  0  0  0  0  0  0  0  0  0  0  0
  1  2  2  0
  2  3  1  0
  2 17  1  0
  3  4  1  0
  4  5  2  0
  4 16  1  0
  5  6  1  0
  6  7  2  0
  7  8  1  0
  7 15  1  0
  8  9  1  0
  9 10  1  0
 10 11  1  0
 10 14  1  0
 11 12  2  0
 12 13  1  0
 13 14  2  0
 15 16  2  0
 17 18  1  0
 18 19  2  0
 18 23  1  0
 19 20  1  0
 20 21  2  0
 21 22  1  0
 22 23  2  0
M  END
>  <original SMILES>  (352) 
O=C(Nc1ccc(CCn2ccnc2)cc1)Nc1cccnc1

>  <AutoDock Predicted Affinity>  (352) 
-6.227735

>  <ref_pdb>  (352) 
x0434_0

>  <ref_mols>  (352) 
x0434_0

>  <creator>  (352) 
Will Poole

>  <energy minimised>  (352) 
True

$$$$
WPC0690_minimised.pdb
     RDKit          3D

 23 25  0  0  0  0  0  0  0  0999 V2000
    8.3890    0.0220   19.7240 O   0  0  0  0  0  0  0  0  0  0  0  0
    7.6060   -0.2140   20.6260 C   0  0  0  0  0  0  0  0  0  0  0  0
    7.9630   -0.4530   21.9230 N   0  0  0  0  0  0  0  0  0  0  0  0
    9.2020   -0.0480   22.4500 C   0  0  0  0  0  0  0  0  0  0  0  0
   10.3980   -0.4060   21.8100 C   0  0  0  0  0  0  0  0  0  0  0  0
   11.5960    0.2230   22.1680 C   0  0  0  0  0  0  0  0  0  0  0  0
   11.5960    1.1990   23.1770 C   0  0  0  0  0  0  0  0  0  0  0  0
   12.8660    1.9500   23.4990 C   0  0  0  0  0  0  0  0  0  0  0  0
   12.8940    3.4030   22.9530 C   0  0  0  0  0  0  0  0  0  0  0  0
   12.1280    4.4070   23.6980 N   0  0  0  0  0  0  0  0  0  0  0  0
   10.8280    4.8190   23.5020 C   0  0  0  0  0  0  0  0  0  0  0  0
   10.5710    5.8230   24.3200 N   0  0  0  0  0  0  0  0  0  0  0  0
   11.7590    6.0220   24.9820 C   0  0  0  0  0  0  0  0  0  0  0  0
   12.7240    5.1970   24.6230 N   0  0  0  0  0  0  0  0  0  0  0  0
   10.4180    1.4730   23.8940 C   0  0  0  0  0  0  0  0  0  0  0  0
    9.2160    0.8570   23.5200 C   0  0  0  0  0  0  0  0  0  0  0  0
    6.2530   -0.1670   20.4590 N   0  0  0  0  0  0  0  0  0  0  0  0
    5.6240    0.4740   19.3690 C   0  0  0  0  0  0  0  0  0  0  0  0
    4.6800    1.4760   19.6240 C   0  0  0  0  0  0  0  0  0  0  0  0
    4.1970    2.2070   18.5320 C   0  0  0  0  0  0  0  0  0  0  0  0
    4.6860    1.9370   17.2470 C   0  0  0  0  0  0  0  0  0  0  0  0
    5.5660    0.9430   16.9880 N   0  0  0  0  0  0  0  0  0  0  0  0
    6.0280    0.2370   18.0380 C   0  0  0  0  0  0  0  0  0  0  0  0
  1  2  2  0
  2  3  1  0
  2 17  1  0
  3  4  1  0
  4  5  2  0
  4 16  1  0
  5  6  1  0
  6  7  2  0
  7  8  1  0
  7 15  1  0
  8  9  1  0
  9 10  1  0
 10 11  1  0
 10 14  1  0
 11 12  2  0
 12 13  1  0
 13 14  2  0
 15 16  2  0
 17 18  1  0
 18 19  2  0
 18 23  1  0
 19 20  1  0
 20 21  2  0
 21 22  1  0
 22 23  2  0
M  END
>  <original SMILES>  (353) 
O=C(Nc1ccc(CCn2cncn2)cc1)Nc1cccnc1

>  <AutoDock Predicted Affinity>  (353) 
-6.113975

>  <ref_pdb>  (353) 
x0434_0

>  <ref_mols>  (353) 
x0434_0

>  <creator>  (353) 
Will Poole

>  <energy minimised>  (353) 
True

$$$$
WPC0602_minimised.pdb
     RDKit          3D

 23 25  0  0  0  0  0  0  0  0999 V2000
    8.4850    0.3080   20.0670 O   0  0  0  0  0  0  0  0  0  0  0  0
    7.7200    0.0090   20.9620 C   0  0  0  0  0  0  0  0  0  0  0  0
    8.1100   -0.3770   22.2160 N   0  0  0  0  0  0  0  0  0  0  0  0
    9.4400   -0.3290   22.6800 C   0  0  0  0  0  0  0  0  0  0  0  0
   10.4710   -0.9400   21.9510 C   0  0  0  0  0  0  0  0  0  0  0  0
   11.8090   -0.7400   22.3190 C   0  0  0  0  0  0  0  0  0  0  0  0
   12.1220    0.0900   23.4060 C   0  0  0  0  0  0  0  0  0  0  0  0
   13.5790    0.3950   23.7230 C   0  0  0  0  0  0  0  0  0  0  0  0
   14.2280    1.4100   22.8740 N   0  0  0  0  0  0  0  0  0  0  0  0
   13.8140    2.6170   22.7840 C   0  0  0  0  0  0  0  0  0  0  0  0
   12.6340    3.0610   23.3340 N   0  0  0  0  0  0  0  0  0  0  0  0
   12.0560    4.3280   22.8890 C   0  0  0  0  0  0  0  0  0  0  0  0
   13.2440    5.1530   22.3950 C   0  0  0  0  0  0  0  0  0  0  0  0
   14.4680    3.9160   21.8460 S   0  0  0  0  0  0  0  0  0  0  0  0
   11.0800    0.6080   24.2010 C   0  0  0  0  0  0  0  0  0  0  0  0
    9.7430    0.4090   23.8320 C   0  0  0  0  0  0  0  0  0  0  0  0
    6.3640    0.0650   20.8100 N   0  0  0  0  0  0  0  0  0  0  0  0
    5.7060    0.6000   19.6760 C   0  0  0  0  0  0  0  0  0  0  0  0
    4.7360    1.5930   19.8580 C   0  0  0  0  0  0  0  0  0  0  0  0
    4.2030    2.1970   18.7120 C   0  0  0  0  0  0  0  0  0  0  0  0
    4.6510    1.7970   17.4450 C   0  0  0  0  0  0  0  0  0  0  0  0
    5.5520    0.8050   17.2580 N   0  0  0  0  0  0  0  0  0  0  0  0
    6.0810    0.2400   18.3620 C   0  0  0  0  0  0  0  0  0  0  0  0
  1  2  2  0
  2  3  1  0
  2 17  1  0
  3  4  1  0
  4  5  2  0
  4 16  1  0
  5  6  1  0
  6  7  2  0
  7  8  1  0
  7 15  1  0
  8  9  1  0
  9 10  2  0
 10 11  1  0
 10 14  1  0
 11 12  1  0
 12 13  1  0
 13 14  1  0
 15 16  2  0
 17 18  1  0
 18 19  2  0
 18 23  1  0
 19 20  1  0
 20 21  2  0
 21 22  1  0
 22 23  2  0
M  END
>  <original SMILES>  (354) 
O=C(Nc1ccc(CN=C2NCCS2)cc1)Nc1cccnc1

>  <AutoDock Predicted Affinity>  (354) 
-6.534932

>  <ref_pdb>  (354) 
x0434_0

>  <ref_mols>  (354) 
x0434_0

>  <creator>  (354) 
Will Poole

>  <energy minimised>  (354) 
True

$$$$
WPC0727_minimised.pdb
     RDKit          3D

 24 26  0  0  0  0  0  0  0  0999 V2000
    8.5380   -0.1230   19.8650 O   0  0  0  0  0  0  0  0  0  0  0  0
    7.7780   -0.2820   20.8000 C   0  0  0  0  0  0  0  0  0  0  0  0
    8.1700   -0.5890   22.0750 N   0  0  0  0  0  0  0  0  0  0  0  0
    9.5010   -0.5080   22.5290 C   0  0  0  0  0  0  0  0  0  0  0  0
   10.5270   -1.1980   21.8680 C   0  0  0  0  0  0  0  0  0  0  0  0
   11.8680   -0.9640   22.2070 C   0  0  0  0  0  0  0  0  0  0  0  0
   12.1850   -0.0340   23.2110 C   0  0  0  0  0  0  0  0  0  0  0  0
   13.6330    0.3050   23.5220 C   0  0  0  0  0  0  0  0  0  0  0  0
   14.1670    1.3960   22.7100 N   0  0  0  0  0  0  0  0  0  0  0  0
   13.7250    2.6950   22.7560 C   0  0  0  0  0  0  0  0  0  0  0  0
   12.8280    2.9890   23.5290 O   0  0  0  0  0  0  0  0  0  0  0  0
   14.5790    3.5210   21.7250 C   0  0  0  0  0  0  0  0  0  0  0  0
   14.5460    4.8820   22.4920 C   0  0  0  0  0  0  0  0  0  0  0  0
   13.2960    5.3000   21.6580 C   0  0  0  0  0  0  0  0  0  0  0  0
   13.3620    3.9650   20.8440 C   0  0  0  0  0  0  0  0  0  0  0  0
   11.1470    0.5870   23.9300 C   0  0  0  0  0  0  0  0  0  0  0  0
    9.8090    0.3580   23.5850 C   0  0  0  0  0  0  0  0  0  0  0  0
    6.4250   -0.1160   20.6880 N   0  0  0  0  0  0  0  0  0  0  0  0
    5.7740    0.4780   19.5800 C   0  0  0  0  0  0  0  0  0  0  0  0
    4.8280    1.4830   19.8150 C   0  0  0  0  0  0  0  0  0  0  0  0
    4.2940    2.1470   18.7040 C   0  0  0  0  0  0  0  0  0  0  0  0
    4.7270    1.8010   17.4160 C   0  0  0  0  0  0  0  0  0  0  0  0
    5.6030    0.7990   17.1770 N   0  0  0  0  0  0  0  0  0  0  0  0
    6.1260    0.1680   18.2480 C   0  0  0  0  0  0  0  0  0  0  0  0
  1  2  2  0
  2  3  1  0
  2 18  1  0
  3  4  1  0
  4  5  2  0
  4 17  1  0
  5  6  1  0
  6  7  2  0
  7  8  1  0
  7 16  1  0
  8  9  1  0
  9 10  1  0
 10 12  1  0
 10 11  2  0
 12 13  1  0
 12 15  1  0
 13 14  1  0
 14 15  1  0
 16 17  2  0
 18 19  1  0
 19 20  2  0
 19 24  1  0
 20 21  1  0
 21 22  2  0
 22 23  1  0
 23 24  2  0
M  END
>  <original SMILES>  (355) 
O=C(Nc1ccc(CNC(=O)C2CCC2)cc1)Nc1cccnc1

>  <AutoDock Predicted Affinity>  (355) 
-7.033377

>  <ref_pdb>  (355) 
x0434_0

>  <ref_mols>  (355) 
x0434_0

>  <creator>  (355) 
Will Poole

>  <energy minimised>  (355) 
True

$$$$
WPC1007_minimised.pdb
     RDKit          3D

 24 25  0  0  0  0  0  0  0  0999 V2000
    8.5580    0.0130   19.8130 O   0  0  0  0  0  0  0  0  0  0  0  0
    7.8050   -0.2370   20.7350 C   0  0  0  0  0  0  0  0  0  0  0  0
    8.2110   -0.5420   22.0050 N   0  0  0  0  0  0  0  0  0  0  0  0
    9.5150   -0.3170   22.4860 C   0  0  0  0  0  0  0  0  0  0  0  0
   10.6310   -0.7980   21.7850 C   0  0  0  0  0  0  0  0  0  0  0  0
   11.9240   -0.4010   22.1560 C   0  0  0  0  0  0  0  0  0  0  0  0
   12.0970    0.4740   23.2390 C   0  0  0  0  0  0  0  0  0  0  0  0
   13.4780    0.9620   23.6180 C   0  0  0  0  0  0  0  0  0  0  0  0
   13.9520    2.1240   22.8560 N   0  0  0  0  0  0  0  0  0  0  0  0
   13.4250    3.3860   22.8190 C   0  0  0  0  0  0  0  0  0  0  0  0
   13.9700    4.2780   22.1990 O   0  0  0  0  0  0  0  0  0  0  0  0
   12.3440    3.5440   23.6290 O   0  0  0  0  0  0  0  0  0  0  0  0
   11.6700    4.8210   23.6200 C   0  0  0  0  0  0  0  0  0  0  0  0
   12.5370    5.8660   24.3630 C   0  0  0  0  0  0  0  0  0  0  0  0
   11.8140    6.4440   25.4490 O   0  0  0  0  0  0  0  0  0  0  0  0
   10.9820    0.8850   23.9940 C   0  0  0  0  0  0  0  0  0  0  0  0
    9.6920    0.4960   23.6120 C   0  0  0  0  0  0  0  0  0  0  0  0
    6.4450   -0.1760   20.6140 N   0  0  0  0  0  0  0  0  0  0  0  0
    5.7690    0.4210   19.5250 C   0  0  0  0  0  0  0  0  0  0  0  0
    4.8090    1.4070   19.7830 C   0  0  0  0  0  0  0  0  0  0  0  0
    4.2630    2.0870   18.6870 C   0  0  0  0  0  0  0  0  0  0  0  0
    4.7010    1.7770   17.3920 C   0  0  0  0  0  0  0  0  0  0  0  0
    5.5920    0.7930   17.1310 N   0  0  0  0  0  0  0  0  0  0  0  0
    6.1230    0.1450   18.1870 C   0  0  0  0  0  0  0  0  0  0  0  0
  1  2  2  0
  2  3  1  0
  2 18  1  0
  3  4  1  0
  4  5  2  0
  4 17  1  0
  5  6  1  0
  6  7  2  0
  7  8  1  0
  7 16  1  0
  8  9  1  0
  9 10  1  0
 10 12  1  0
 10 11  2  0
 12 13  1  0
 13 14  1  0
 14 15  1  0
 16 17  2  0
 18 19  1  0
 19 20  2  0
 19 24  1  0
 20 21  1  0
 21 22  2  0
 22 23  1  0
 23 24  2  0
M  END
>  <original SMILES>  (356) 
O=C(Nc1ccc(CNC(=O)OCCO)cc1)Nc1cccnc1

>  <AutoDock Predicted Affinity>  (356) 
-5.96674

>  <ref_pdb>  (356) 
x0434_0

>  <ref_mols>  (356) 
x0434_0

>  <creator>  (356) 
Will Poole

>  <energy minimised>  (356) 
True

$$$$
WPC0455_minimised.pdb
     RDKit          3D

 21 22  0  0  0  0  0  0  0  0999 V2000
    8.4550   -0.0390   19.8230 O   0  0  0  0  0  0  0  0  0  0  0  0
    7.6840   -0.3600   20.7070 C   0  0  0  0  0  0  0  0  0  0  0  0
    8.0550   -0.7480   21.9670 N   0  0  0  0  0  0  0  0  0  0  0  0
    9.3160   -0.4750   22.5310 C   0  0  0  0  0  0  0  0  0  0  0  0
   10.4940   -0.6870   21.7980 C   0  0  0  0  0  0  0  0  0  0  0  0
   11.7090   -0.1570   22.2470 C   0  0  0  0  0  0  0  0  0  0  0  0
   11.7470    0.5700   23.4460 C   0  0  0  0  0  0  0  0  0  0  0  0
   13.0220    1.2640   23.8620 C   0  0  0  0  0  0  0  0  0  0  0  0
   13.3630    2.4550   23.0670 N   0  0  0  0  0  0  0  0  0  0  0  0
   12.7790    3.7070   23.0790 C   0  0  0  0  0  0  0  0  0  0  0  0
   13.4860    4.9760   22.2630 S   0  0  0  0  0  0  0  0  0  0  0  0
   11.3340    3.9380   24.1160 S   0  0  0  0  0  0  0  0  0  0  0  0
   10.5960    0.6520   24.2540 C   0  0  0  0  0  0  0  0  0  0  0  0
    9.3760    0.1470   23.7850 C   0  0  0  0  0  0  0  0  0  0  0  0
    6.3280   -0.2990   20.5550 N   0  0  0  0  0  0  0  0  0  0  0  0
    5.6850    0.3570   19.4800 C   0  0  0  0  0  0  0  0  0  0  0  0
    4.7430    1.3560   19.7560 C   0  0  0  0  0  0  0  0  0  0  0  0
    4.2300    2.0810   18.6730 C   0  0  0  0  0  0  0  0  0  0  0  0
    4.6830    1.8020   17.3750 C   0  0  0  0  0  0  0  0  0  0  0  0
    5.5640    0.8150   17.0990 N   0  0  0  0  0  0  0  0  0  0  0  0
    6.0630    0.1220   18.1420 C   0  0  0  0  0  0  0  0  0  0  0  0
  1  2  2  0
  2  3  1  0
  2 15  1  0
  3  4  1  0
  4  5  2  0
  4 14  1  0
  5  6  1  0
  6  7  2  0
  7  8  1  0
  7 13  1  0
  8  9  1  0
  9 10  1  0
 10 11  2  0
 10 12  1  0
 13 14  2  0
 15 16  1  0
 16 17  2  0
 16 21  1  0
 17 18  1  0
 18 19  2  0
 19 20  1  0
 20 21  2  0
M  END
>  <original SMILES>  (357) 
O=C(Nc1ccc(CNC(=S)S)cc1)Nc1cccnc1

>  <AutoDock Predicted Affinity>  (357) 
-5.77339

>  <ref_pdb>  (357) 
x0434_0

>  <ref_mols>  (357) 
x0434_0

>  <creator>  (357) 
Will Poole

>  <energy minimised>  (357) 
True

$$$$
WPC0469_minimised.pdb
     RDKit          3D

 21 23  0  0  0  0  0  0  0  0999 V2000
    8.4210    0.1300   19.8270 O   0  0  0  0  0  0  0  0  0  0  0  0
    7.6660   -0.1560   20.7370 C   0  0  0  0  0  0  0  0  0  0  0  0
    8.0580   -0.5060   22.0020 N   0  0  0  0  0  0  0  0  0  0  0  0
    9.3490   -0.2930   22.5260 C   0  0  0  0  0  0  0  0  0  0  0  0
   10.4930   -0.5670   21.7600 C   0  0  0  0  0  0  0  0  0  0  0  0
   11.7520   -0.1280   22.1860 C   0  0  0  0  0  0  0  0  0  0  0  0
   11.8720    0.5560   23.4040 C   0  0  0  0  0  0  0  0  0  0  0  0
   13.2080    1.1270   23.8190 C   0  0  0  0  0  0  0  0  0  0  0  0
   13.3750    2.5310   23.4110 N   0  0  0  0  0  0  0  0  0  0  0  0
   12.3850    3.4990   23.8250 C   0  0  0  0  0  0  0  0  0  0  0  0
   12.8060    4.9430   23.7260 C   0  0  0  0  0  0  0  0  0  0  0  0
   11.7780    4.3910   22.7760 C   0  0  0  0  0  0  0  0  0  0  0  0
   10.7440    0.7240   24.2290 C   0  0  0  0  0  0  0  0  0  0  0  0
    9.4800    0.3140   23.7820 C   0  0  0  0  0  0  0  0  0  0  0  0
    6.3090   -0.0980   20.6000 N   0  0  0  0  0  0  0  0  0  0  0  0
    5.6510    0.5010   19.5020 C   0  0  0  0  0  0  0  0  0  0  0  0
    4.7050    1.5060   19.7400 C   0  0  0  0  0  0  0  0  0  0  0  0
    4.1850    2.1830   18.6300 C   0  0  0  0  0  0  0  0  0  0  0  0
    4.6320    1.8500   17.3430 C   0  0  0  0  0  0  0  0  0  0  0  0
    5.5120    0.8520   17.1030 N   0  0  0  0  0  0  0  0  0  0  0  0
    6.0190    0.2070   18.1720 C   0  0  0  0  0  0  0  0  0  0  0  0
  1  2  2  0
  2  3  1  0
  2 15  1  0
  3  4  1  0
  4  5  2  0
  4 14  1  0
  5  6  1  0
  6  7  2  0
  7  8  1  0
  7 13  1  0
  8  9  1  0
  9 10  1  0
 10 11  1  0
 10 12  1  0
 11 12  1  0
 13 14  2  0
 15 16  1  0
 16 17  2  0
 16 21  1  0
 17 18  1  0
 18 19  2  0
 19 20  1  0
 20 21  2  0
M  END
>  <original SMILES>  (358) 
O=C(Nc1ccc(CNC2CC2)cc1)Nc1cccnc1

>  <AutoDock Predicted Affinity>  (358) 
-5.6058

>  <ref_pdb>  (358) 
x0434_0

>  <ref_mols>  (358) 
x0434_0

>  <creator>  (358) 
Will Poole

>  <energy minimised>  (358) 
True

$$$$
WPC0656_minimised.pdb
     RDKit          3D

 23 25  0  0  0  0  0  0  0  0999 V2000
    8.7480    0.0620   19.8710 O   0  0  0  0  0  0  0  0  0  0  0  0
    8.0140   -0.2010   20.8030 C   0  0  0  0  0  0  0  0  0  0  0  0
    8.4460   -0.4970   22.0680 N   0  0  0  0  0  0  0  0  0  0  0  0
    9.7610   -0.2670   22.5180 C   0  0  0  0  0  0  0  0  0  0  0  0
   10.8560   -0.8010   21.8220 C   0  0  0  0  0  0  0  0  0  0  0  0
   12.1610   -0.4000   22.1450 C   0  0  0  0  0  0  0  0  0  0  0  0
   12.3690    0.5410   23.1670 C   0  0  0  0  0  0  0  0  0  0  0  0
   13.7550    1.0860   23.4430 C   0  0  0  0  0  0  0  0  0  0  0  0
   14.1840    2.1110   22.4740 N   0  0  0  0  0  0  0  0  0  0  0  0
   13.2920    3.2710   22.2900 C   0  0  0  0  0  0  0  0  0  0  0  0
   13.8000    4.2430   21.2030 C   0  0  0  0  0  0  0  0  0  0  0  0
   13.8700    5.6380   21.8440 C   0  0  0  0  0  0  0  0  0  0  0  0
   12.9060    5.5460   23.0350 C   0  0  0  0  0  0  0  0  0  0  0  0
   13.1850    4.1410   23.5470 C   0  0  0  0  0  0  0  0  0  0  0  0
   11.2740    1.0040   23.9210 C   0  0  0  0  0  0  0  0  0  0  0  0
    9.9720    0.6040   23.5940 C   0  0  0  0  0  0  0  0  0  0  0  0
    6.6510   -0.1660   20.6990 N   0  0  0  0  0  0  0  0  0  0  0  0
    5.9470    0.4010   19.6100 C   0  0  0  0  0  0  0  0  0  0  0  0
    4.9830    1.3830   19.8670 C   0  0  0  0  0  0  0  0  0  0  0  0
    4.4010    2.0280   18.7690 C   0  0  0  0  0  0  0  0  0  0  0  0
    4.8060    1.6860   17.4710 C   0  0  0  0  0  0  0  0  0  0  0  0
    5.6970    0.7020   17.2120 N   0  0  0  0  0  0  0  0  0  0  0  0
    6.2690    0.0930   18.2710 C   0  0  0  0  0  0  0  0  0  0  0  0
  1  2  2  0
  2  3  1  0
  2 17  1  0
  3  4  1  0
  4  5  2  0
  4 16  1  0
  5  6  1  0
  6  7  2  0
  7  8  1  0
  7 15  1  0
  8  9  1  0
  9 10  1  0
 10 11  1  0
 10 14  1  0
 11 12  1  0
 12 13  1  0
 13 14  1  0
 15 16  2  0
 17 18  1  0
 18 19  2  0
 18 23  1  0
 19 20  1  0
 20 21  2  0
 21 22  1  0
 22 23  2  0
M  END
>  <original SMILES>  (359) 
O=C(Nc1ccc(CNC2CCCC2)cc1)Nc1cccnc1

>  <AutoDock Predicted Affinity>  (359) 
-6.718405

>  <ref_pdb>  (359) 
x0434_0

>  <ref_mols>  (359) 
x0434_0

>  <creator>  (359) 
Will Poole

>  <energy minimised>  (359) 
True

$$$$
WPC0669_minimised.pdb
     RDKit          3D

 24 26  0  0  0  0  0  0  0  0999 V2000
    8.7000    0.1350   19.9710 O   0  0  0  0  0  0  0  0  0  0  0  0
    7.9810   -0.2760   20.8610 C   0  0  0  0  0  0  0  0  0  0  0  0
    8.4210   -0.7300   22.0770 N   0  0  0  0  0  0  0  0  0  0  0  0
    9.7260   -0.5630   22.5900 C   0  0  0  0  0  0  0  0  0  0  0  0
   10.8600   -0.7080   21.7730 C   0  0  0  0  0  0  0  0  0  0  0  0
   12.1280   -0.3380   22.2420 C   0  0  0  0  0  0  0  0  0  0  0  0
   12.2690    0.1630   23.5440 C   0  0  0  0  0  0  0  0  0  0  0  0
   13.6160    0.6610   24.0320 C   0  0  0  0  0  0  0  0  0  0  0  0
   14.0860    1.8990   23.3920 N   0  0  0  0  0  0  0  0  0  0  0  0
   13.1680    3.0480   23.2820 C   0  0  0  0  0  0  0  0  0  0  0  0
   13.9850    4.2510   22.7650 C   0  0  0  0  0  0  0  0  0  0  0  0
   13.1480    5.5390   22.6890 C   0  0  0  0  0  0  0  0  0  0  0  0
   12.4370    5.8640   24.0270 C   0  0  0  0  0  0  0  0  0  0  0  0
   11.6010    4.6700   24.5040 C   0  0  0  0  0  0  0  0  0  0  0  0
   12.4950    3.4260   24.6160 C   0  0  0  0  0  0  0  0  0  0  0  0
   11.1530    0.1880   24.4040 C   0  0  0  0  0  0  0  0  0  0  0  0
    9.8820   -0.1580   23.9220 C   0  0  0  0  0  0  0  0  0  0  0  0
    6.6190   -0.2810   20.7430 N   0  0  0  0  0  0  0  0  0  0  0  0
    5.9180    0.3180   19.6690 C   0  0  0  0  0  0  0  0  0  0  0  0
    4.9670    1.3100   19.9380 C   0  0  0  0  0  0  0  0  0  0  0  0
    4.3960    1.9790   18.8470 C   0  0  0  0  0  0  0  0  0  0  0  0
    4.7990    1.6490   17.5440 C   0  0  0  0  0  0  0  0  0  0  0  0
    5.6840    0.6640   17.2740 N   0  0  0  0  0  0  0  0  0  0  0  0
    6.2430    0.0310   18.3250 C   0  0  0  0  0  0  0  0  0  0  0  0
  1  2  2  0
  2  3  1  0
  2 18  1  0
  3  4  1  0
  4  5  2  0
  4 17  1  0
  5  6  1  0
  6  7  2  0
  7  8  1  0
  7 16  1  0
  8  9  1  0
  9 10  1  0
 10 11  1  0
 10 15  1  0
 11 12  1  0
 12 13  1  0
 13 14  1  0
 14 15  1  0
 16 17  2  0
 18 19  1  0
 19 20  2  0
 19 24  1  0
 20 21  1  0
 21 22  2  0
 22 23  1  0
 23 24  2  0
M  END
>  <original SMILES>  (360) 
O=C(Nc1ccc(CNC2CCCCC2)cc1)Nc1cccnc1

>  <AutoDock Predicted Affinity>  (360) 
-6.5635

>  <ref_pdb>  (360) 
x0434_0

>  <ref_mols>  (360) 
x0434_0

>  <creator>  (360) 
Will Poole

>  <energy minimised>  (360) 
True

$$$$
WPC0653_minimised.pdb
     RDKit          3D

 22 23  0  0  0  0  0  0  0  0999 V2000
    8.6610    0.3550   19.9490 O   0  0  0  0  0  0  0  0  0  0  0  0
    7.9670    0.1140   20.9180 C   0  0  0  0  0  0  0  0  0  0  0  0
    8.4660   -0.1390   22.1680 N   0  0  0  0  0  0  0  0  0  0  0  0
    9.8310   -0.0150   22.5040 C   0  0  0  0  0  0  0  0  0  0  0  0
   10.8060   -0.6080   21.6870 C   0  0  0  0  0  0  0  0  0  0  0  0
   12.1620   -0.3220   21.8780 C   0  0  0  0  0  0  0  0  0  0  0  0
   12.5500    0.5380   22.9150 C   0  0  0  0  0  0  0  0  0  0  0  0
   14.0120    0.8730   23.0990 C   0  0  0  0  0  0  0  0  0  0  0  0
   14.4960    1.9680   22.2420 N   0  0  0  0  0  0  0  0  0  0  0  0
   14.1490    3.3530   22.6070 C   0  0  0  0  0  0  0  0  0  0  0  0
   12.7800    3.8310   22.0850 C   0  0  0  0  0  0  0  0  0  0  0  0
   12.2060    4.9670   22.9510 C   0  0  0  0  0  0  0  0  0  0  0  0
   11.7660    4.4400   24.1990 O   0  0  0  0  0  0  0  0  0  0  0  0
   11.5820    1.0550   23.7960 C   0  0  0  0  0  0  0  0  0  0  0  0
   10.2200    0.7880   23.5850 C   0  0  0  0  0  0  0  0  0  0  0  0
    6.6010    0.1100   20.8440 N   0  0  0  0  0  0  0  0  0  0  0  0
    5.8740    0.5770   19.7220 C   0  0  0  0  0  0  0  0  0  0  0  0
    4.8970    1.5620   19.9100 C   0  0  0  0  0  0  0  0  0  0  0  0
    4.3180    2.1290   18.7690 C   0  0  0  0  0  0  0  0  0  0  0  0
    4.7410    1.7160   17.4980 C   0  0  0  0  0  0  0  0  0  0  0  0
    5.6400    0.7240   17.3040 N   0  0  0  0  0  0  0  0  0  0  0  0
    6.2030    0.1840   18.4040 C   0  0  0  0  0  0  0  0  0  0  0  0
  1  2  2  0
  2  3  1  0
  2 16  1  0
  3  4  1  0
  4  5  2  0
  4 15  1  0
  5  6  1  0
  6  7  2  0
  7  8  1  0
  7 14  1  0
  8  9  1  0
  9 10  1  0
 10 11  1  0
 11 12  1  0
 12 13  1  0
 14 15  2  0
 16 17  1  0
 17 18  2  0
 17 22  1  0
 18 19  1  0
 19 20  2  0
 20 21  1  0
 21 22  2  0
M  END
>  <original SMILES>  (361) 
O=C(Nc1ccc(CNCCCO)cc1)Nc1cccnc1

>  <AutoDock Predicted Affinity>  (361) 
-5.60027

>  <ref_pdb>  (361) 
x0434_0

>  <ref_mols>  (361) 
x0434_0

>  <creator>  (361) 
Will Poole

>  <energy minimised>  (361) 
True

$$$$
WPC0610_minimised.pdb
     RDKit          3D

 21 22  0  0  0  0  0  0  0  0999 V2000
    8.4450    0.0580   19.8560 O   0  0  0  0  0  0  0  0  0  0  0  0
    7.6640   -0.2850   20.7240 C   0  0  0  0  0  0  0  0  0  0  0  0
    8.0180   -0.7240   21.9720 N   0  0  0  0  0  0  0  0  0  0  0  0
    9.2950   -0.5350   22.5360 C   0  0  0  0  0  0  0  0  0  0  0  0
   10.4530   -0.7940   21.7880 C   0  0  0  0  0  0  0  0  0  0  0  0
   11.6990   -0.3340   22.2310 C   0  0  0  0  0  0  0  0  0  0  0  0
   11.7830    0.3570   23.4490 C   0  0  0  0  0  0  0  0  0  0  0  0
   13.0760    1.0240   23.8570 C   0  0  0  0  0  0  0  0  0  0  0  0
   13.1890    2.4070   23.3540 N   0  0  0  0  0  0  0  0  0  0  0  0
   11.9780    3.2520   23.4410 C   0  0  0  0  0  0  0  0  0  0  0  0
   12.2500    4.6930   22.9570 C   0  0  0  0  0  0  0  0  0  0  0  0
   11.0210    5.3980   22.7690 O   0  0  0  0  0  0  0  0  0  0  0  0
   10.6430    0.4980   24.2630 C   0  0  0  0  0  0  0  0  0  0  0  0
    9.3950    0.0640   23.7990 C   0  0  0  0  0  0  0  0  0  0  0  0
    6.3100   -0.2050   20.5600 N   0  0  0  0  0  0  0  0  0  0  0  0
    5.6810    0.4450   19.4740 C   0  0  0  0  0  0  0  0  0  0  0  0
    4.7330    1.4430   19.7300 C   0  0  0  0  0  0  0  0  0  0  0  0
    4.2350    2.1610   18.6350 C   0  0  0  0  0  0  0  0  0  0  0  0
    4.7070    1.8760   17.3460 C   0  0  0  0  0  0  0  0  0  0  0  0
    5.5930    0.8870   17.0880 N   0  0  0  0  0  0  0  0  0  0  0  0
    6.0750    0.2000   18.1420 C   0  0  0  0  0  0  0  0  0  0  0  0
  1  2  2  0
  2  3  1  0
  2 15  1  0
  3  4  1  0
  4  5  2  0
  4 14  1  0
  5  6  1  0
  6  7  2  0
  7  8  1  0
  7 13  1  0
  8  9  1  0
  9 10  1  0
 10 11  1  0
 11 12  1  0
 13 14  2  0
 15 16  1  0
 16 17  2  0
 16 21  1  0
 17 18  1  0
 18 19  2  0
 19 20  1  0
 20 21  2  0
M  END
>  <original SMILES>  (362) 
O=C(Nc1ccc(CNCCO)cc1)Nc1cccnc1

>  <AutoDock Predicted Affinity>  (362) 
-5.25712

>  <ref_pdb>  (362) 
x0434_0

>  <ref_mols>  (362) 
x0434_0

>  <creator>  (362) 
Will Poole

>  <energy minimised>  (362) 
True

$$$$
WPC0975_minimised.pdb
     RDKit          3D

 19 20  0  0  0  0  0  0  0  0999 V2000
    8.4540   -0.0190   19.8060 O   0  0  0  0  0  0  0  0  0  0  0  0
    7.6900   -0.2950   20.7120 C   0  0  0  0  0  0  0  0  0  0  0  0
    8.0720   -0.6280   21.9830 N   0  0  0  0  0  0  0  0  0  0  0  0
    9.3370   -0.3140   22.5180 C   0  0  0  0  0  0  0  0  0  0  0  0
   10.5100   -0.6070   21.8060 C   0  0  0  0  0  0  0  0  0  0  0  0
   11.7310   -0.0420   22.1960 C   0  0  0  0  0  0  0  0  0  0  0  0
   11.7790    0.7970   23.3210 C   0  0  0  0  0  0  0  0  0  0  0  0
   13.0590    1.5250   23.6690 C   0  0  0  0  0  0  0  0  0  0  0  0
   13.0300    2.9480   23.2720 N   0  0  0  0  0  0  0  0  0  0  0  0
   12.0590    3.6840   24.0150 O   0  0  0  0  0  0  0  0  0  0  0  0
   10.6260    0.9880   24.1030 C   0  0  0  0  0  0  0  0  0  0  0  0
    9.4020    0.4430   23.6950 C   0  0  0  0  0  0  0  0  0  0  0  0
    6.3330   -0.2230   20.5690 N   0  0  0  0  0  0  0  0  0  0  0  0
    5.6880    0.4160   19.4860 C   0  0  0  0  0  0  0  0  0  0  0  0
    4.7510    1.4240   19.7500 C   0  0  0  0  0  0  0  0  0  0  0  0
    4.2440    2.1420   18.6590 C   0  0  0  0  0  0  0  0  0  0  0  0
    4.6960    1.8470   17.3650 C   0  0  0  0  0  0  0  0  0  0  0  0
    5.5700    0.8500   17.1000 N   0  0  0  0  0  0  0  0  0  0  0  0
    6.0620    0.1640   18.1500 C   0  0  0  0  0  0  0  0  0  0  0  0
  1  2  2  0
  2  3  1  0
  2 13  1  0
  3  4  1  0
  4  5  2  0
  4 12  1  0
  5  6  1  0
  6  7  2  0
  7  8  1  0
  7 11  1  0
  8  9  1  0
  9 10  1  0
 11 12  2  0
 13 14  1  0
 14 15  2  0
 14 19  1  0
 15 16  1  0
 16 17  2  0
 17 18  1  0
 18 19  2  0
M  END
>  <original SMILES>  (363) 
O=C(Nc1ccc(CNO)cc1)Nc1cccnc1

>  <AutoDock Predicted Affinity>  (363) 
-5.26233

>  <ref_pdb>  (363) 
x0434_0

>  <ref_mols>  (363) 
x0434_0

>  <creator>  (363) 
Will Poole

>  <energy minimised>  (363) 
True

$$$$
WPC0819_minimised.pdb
     RDKit          3D

 24 26  0  0  0  0  0  0  0  0999 V2000
    8.5110   -0.0290   19.8360 O   0  0  0  0  0  0  0  0  0  0  0  0
    7.7710   -0.1750   20.7880 C   0  0  0  0  0  0  0  0  0  0  0  0
    8.1940   -0.4280   22.0630 N   0  0  0  0  0  0  0  0  0  0  0  0
    9.5300   -0.3020   22.4880 C   0  0  0  0  0  0  0  0  0  0  0  0
   10.5480   -1.0620   21.8920 C   0  0  0  0  0  0  0  0  0  0  0  0
   11.8910   -0.8270   22.2270 C   0  0  0  0  0  0  0  0  0  0  0  0
   12.2180    0.1770   23.1550 C   0  0  0  0  0  0  0  0  0  0  0  0
   13.6640    0.4770   23.5030 C   0  0  0  0  0  0  0  0  0  0  0  0
   14.3060    1.3950   22.5650 N   0  0  0  0  0  0  0  0  0  0  0  0
   14.1100    2.7480   22.4880 C   0  0  0  0  0  0  0  0  0  0  0  0
   14.9260    3.4800   21.6330 C   0  0  0  0  0  0  0  0  0  0  0  0
   14.7570    4.8590   21.5360 C   0  0  0  0  0  0  0  0  0  0  0  0
   13.7740    5.4450   22.3360 C   0  0  0  0  0  0  0  0  0  0  0  0
   12.9770    4.6280   23.1520 C   0  0  0  0  0  0  0  0  0  0  0  0
   13.1490    3.2990   23.2360 N   0  0  0  0  0  0  0  0  0  0  0  0
   11.1880    0.8980   23.7870 C   0  0  0  0  0  0  0  0  0  0  0  0
    9.8480    0.6600   23.4540 C   0  0  0  0  0  0  0  0  0  0  0  0
    6.4130   -0.0440   20.6920 N   0  0  0  0  0  0  0  0  0  0  0  0
    5.7360    0.5180   19.5830 C   0  0  0  0  0  0  0  0  0  0  0  0
    4.7840    1.5190   19.8120 C   0  0  0  0  0  0  0  0  0  0  0  0
    4.2300    2.1580   18.6960 C   0  0  0  0  0  0  0  0  0  0  0  0
    4.6460    1.7890   17.4090 C   0  0  0  0  0  0  0  0  0  0  0  0
    5.5260    0.7880   17.1770 N   0  0  0  0  0  0  0  0  0  0  0  0
    6.0700    0.1830   18.2520 C   0  0  0  0  0  0  0  0  0  0  0  0
  1  2  2  0
  2  3  1  0
  2 18  1  0
  3  4  1  0
  4  5  2  0
  4 17  1  0
  5  6  1  0
  6  7  2  0
  7  8  1  0
  7 16  1  0
  8  9  1  0
  9 10  1  0
 10 11  2  0
 10 15  1  0
 11 12  1  0
 12 13  2  0
 13 14  1  0
 14 15  2  0
 16 17  2  0
 18 19  1  0
 19 20  2  0
 19 24  1  0
 20 21  1  0
 21 22  2  0
 22 23  1  0
 23 24  2  0
M  END
>  <original SMILES>  (364) 
O=C(Nc1ccc(CNc2ccccn2)cc1)Nc1cccnc1

>  <AutoDock Predicted Affinity>  (364) 
-6.59562

>  <ref_pdb>  (364) 
x0434_0

>  <ref_mols>  (364) 
x0434_0

>  <creator>  (364) 
Will Poole

>  <energy minimised>  (364) 
True

$$$$
WPC0392_minimised.pdb
     RDKit          3D

 24 26  0  0  0  0  0  0  0  0999 V2000
    8.5860    0.0100   19.7900 O   0  0  0  0  0  0  0  0  0  0  0  0
    7.8630   -0.1250   20.7570 C   0  0  0  0  0  0  0  0  0  0  0  0
    8.3130   -0.3370   22.0290 N   0  0  0  0  0  0  0  0  0  0  0  0
    9.6520   -0.1590   22.4270 C   0  0  0  0  0  0  0  0  0  0  0  0
   10.6750   -0.9530   21.8880 C   0  0  0  0  0  0  0  0  0  0  0  0
   12.0170   -0.6820   22.2040 C   0  0  0  0  0  0  0  0  0  0  0  0
   12.3360    0.3950   23.0500 C   0  0  0  0  0  0  0  0  0  0  0  0
   13.7770    0.7200   23.4000 C   0  0  0  0  0  0  0  0  0  0  0  0
   14.4250    1.6330   22.4500 N   0  0  0  0  0  0  0  0  0  0  0  0
   14.2580    3.0070   22.3850 C   0  0  0  0  0  0  0  0  0  0  0  0
   15.0380    3.8030   21.5060 C   0  0  0  0  0  0  0  0  0  0  0  0
   14.9030    5.1460   21.4080 N   0  0  0  0  0  0  0  0  0  0  0  0
   13.9650    5.6820   22.2160 C   0  0  0  0  0  0  0  0  0  0  0  0
   13.1810    4.8960   23.0930 C   0  0  0  0  0  0  0  0  0  0  0  0
   13.3260    3.5540   23.1900 N   0  0  0  0  0  0  0  0  0  0  0  0
   11.3010    1.1570   23.6210 C   0  0  0  0  0  0  0  0  0  0  0  0
    9.9630    0.8830   23.3080 C   0  0  0  0  0  0  0  0  0  0  0  0
    6.5030   -0.0140   20.6800 N   0  0  0  0  0  0  0  0  0  0  0  0
    5.8020    0.5290   19.5770 C   0  0  0  0  0  0  0  0  0  0  0  0
    4.8450    1.5240   19.8120 C   0  0  0  0  0  0  0  0  0  0  0  0
    4.2670    2.1480   18.7000 C   0  0  0  0  0  0  0  0  0  0  0  0
    4.6700    1.7750   17.4100 C   0  0  0  0  0  0  0  0  0  0  0  0
    5.5530    0.7790   17.1720 N   0  0  0  0  0  0  0  0  0  0  0  0
    6.1180    0.1860   18.2440 C   0  0  0  0  0  0  0  0  0  0  0  0
  1  2  2  0
  2  3  1  0
  2 18  1  0
  3  4  1  0
  4  5  2  0
  4 17  1  0
  5  6  1  0
  6  7  2  0
  7  8  1  0
  7 16  1  0
  8  9  1  0
  9 10  1  0
 10 11  2  0
 10 15  1  0
 11 12  1  0
 12 13  2  0
 13 14  1  0
 14 15  2  0
 16 17  2  0
 18 19  1  0
 19 20  2  0
 19 24  1  0
 20 21  1  0
 21 22  2  0
 22 23  1  0
 23 24  2  0
M  END
>  <original SMILES>  (365) 
O=C(Nc1ccc(CNc2cnccn2)cc1)Nc1cccnc1

>  <AutoDock Predicted Affinity>  (365) 
-6.1829

>  <ref_pdb>  (365) 
x0434_0

>  <ref_mols>  (365) 
x0434_0

>  <creator>  (365) 
Will Poole

>  <energy minimised>  (365) 
True

$$$$
WPC0705_minimised.pdb
     RDKit          3D

 24 26  0  0  0  0  0  0  0  0999 V2000
    8.6850    0.1690   19.8930 O   0  0  0  0  0  0  0  0  0  0  0  0
    7.9810    0.0400   20.8730 C   0  0  0  0  0  0  0  0  0  0  0  0
    8.4660   -0.1130   22.1410 N   0  0  0  0  0  0  0  0  0  0  0  0
    9.8220    0.0450   22.4860 C   0  0  0  0  0  0  0  0  0  0  0  0
   10.7890   -0.8490   22.0020 C   0  0  0  0  0  0  0  0  0  0  0  0
   12.1480   -0.6280   22.2730 C   0  0  0  0  0  0  0  0  0  0  0  0
   12.5440    0.4970   23.0190 C   0  0  0  0  0  0  0  0  0  0  0  0
   14.0090    0.7680   23.3000 C   0  0  0  0  0  0  0  0  0  0  0  0
   14.5920    1.6620   22.2950 N   0  0  0  0  0  0  0  0  0  0  0  0
   14.3130    3.0000   22.2090 C   0  0  0  0  0  0  0  0  0  0  0  0
   14.1130    3.6760   23.2840 N   0  0  0  0  0  0  0  0  0  0  0  0
   14.0350    5.0110   23.0320 N   0  0  0  0  0  0  0  0  0  0  0  0
   14.1660    5.3820   21.7210 C   0  0  0  0  0  0  0  0  0  0  0  0
   14.3810    6.9410   21.2090 S   0  0  0  0  0  0  0  0  0  0  0  0
   14.3630    3.9110   20.7230 S   0  0  0  0  0  0  0  0  0  0  0  0
   11.5690    1.3790   23.5180 C   0  0  0  0  0  0  0  0  0  0  0  0
   10.2110    1.1510   23.2530 C   0  0  0  0  0  0  0  0  0  0  0  0
    6.6160    0.0880   20.8060 N   0  0  0  0  0  0  0  0  0  0  0  0
    5.8890    0.5590   19.6860 C   0  0  0  0  0  0  0  0  0  0  0  0
    4.9140    1.5430   19.8880 C   0  0  0  0  0  0  0  0  0  0  0  0
    4.3150    2.1090   18.7560 C   0  0  0  0  0  0  0  0  0  0  0  0
    4.7140    1.6900   17.4790 C   0  0  0  0  0  0  0  0  0  0  0  0
    5.6110    0.6990   17.2740 N   0  0  0  0  0  0  0  0  0  0  0  0
    6.1980    0.1640   18.3650 C   0  0  0  0  0  0  0  0  0  0  0  0
  1  2  2  0
  2  3  1  0
  2 18  1  0
  3  4  1  0
  4  5  2  0
  4 17  1  0
  5  6  1  0
  6  7  2  0
  7  8  1  0
  7 16  1  0
  8  9  1  0
  9 10  1  0
 10 11  2  0
 10 15  1  0
 11 12  1  0
 12 13  1  0
 13 14  2  0
 13 15  1  0
 16 17  2  0
 18 19  1  0
 19 20  2  0
 19 24  1  0
 20 21  1  0
 21 22  2  0
 22 23  1  0
 23 24  2  0
M  END
>  <original SMILES>  (366) 
O=C(Nc1ccc(CNc2n[nH]c(=S)s2)cc1)Nc1cccnc1

>  <AutoDock Predicted Affinity>  (366) 
-6.09247

>  <ref_pdb>  (366) 
x0434_0

>  <ref_mols>  (366) 
x0434_0

>  <creator>  (366) 
Will Poole

>  <energy minimised>  (366) 
True

$$$$
WPC0847_minimised.pdb
     RDKit          3D

 24 26  0  0  0  0  0  0  0  0999 V2000
    8.5870    0.1160   19.8020 O   0  0  0  0  0  0  0  0  0  0  0  0
    7.8640   -0.0200   20.7680 C   0  0  0  0  0  0  0  0  0  0  0  0
    8.3170   -0.2020   22.0430 N   0  0  0  0  0  0  0  0  0  0  0  0
    9.6560   -0.0100   22.4330 C   0  0  0  0  0  0  0  0  0  0  0  0
   10.6680   -0.8620   21.9670 C   0  0  0  0  0  0  0  0  0  0  0  0
   12.0090   -0.6020   22.2920 C   0  0  0  0  0  0  0  0  0  0  0  0
   12.3400    0.5220   23.0690 C   0  0  0  0  0  0  0  0  0  0  0  0
   13.7800    0.8170   23.4410 C   0  0  0  0  0  0  0  0  0  0  0  0
   14.4510    1.7180   22.5050 N   0  0  0  0  0  0  0  0  0  0  0  0
   14.2310    3.0430   22.3390 C   0  0  0  0  0  0  0  0  0  0  0  0
   14.8220    3.4820   21.2470 N   0  0  0  0  0  0  0  0  0  0  0  0
   14.7320    4.7870   21.0110 C   0  0  0  0  0  0  0  0  0  0  0  0
   14.0380    5.6330   21.8690 C   0  0  0  0  0  0  0  0  0  0  0  0
   13.4330    5.0500   22.9810 C   0  0  0  0  0  0  0  0  0  0  0  0
   13.5390    3.7410   23.2330 N   0  0  0  0  0  0  0  0  0  0  0  0
   11.3170    1.3560   23.5540 C   0  0  0  0  0  0  0  0  0  0  0  0
    9.9780    1.0910   23.2360 C   0  0  0  0  0  0  0  0  0  0  0  0
    6.5010    0.0580   20.6880 N   0  0  0  0  0  0  0  0  0  0  0  0
    5.7940    0.5810   19.5790 C   0  0  0  0  0  0  0  0  0  0  0  0
    4.8270    1.5690   19.8050 C   0  0  0  0  0  0  0  0  0  0  0  0
    4.2520    2.1840   18.6860 C   0  0  0  0  0  0  0  0  0  0  0  0
    4.6660    1.8090   17.4010 C   0  0  0  0  0  0  0  0  0  0  0  0
    5.5570    0.8170   17.1720 N   0  0  0  0  0  0  0  0  0  0  0  0
    6.1200    0.2340   18.2500 C   0  0  0  0  0  0  0  0  0  0  0  0
  1  2  2  0
  2  3  1  0
  2 18  1  0
  3  4  1  0
  4  5  2  0
  4 17  1  0
  5  6  1  0
  6  7  2  0
  7  8  1  0
  7 16  1  0
  8  9  1  0
  9 10  1  0
 10 11  2  0
 10 15  1  0
 11 12  1  0
 12 13  2  0
 13 14  1  0
 14 15  2  0
 16 17  2  0
 18 19  1  0
 19 20  2  0
 19 24  1  0
 20 21  1  0
 21 22  2  0
 22 23  1  0
 23 24  2  0
M  END
>  <original SMILES>  (367) 
O=C(Nc1ccc(CNc2ncccn2)cc1)Nc1cccnc1

>  <AutoDock Predicted Affinity>  (367) 
-6.961327

>  <ref_pdb>  (367) 
x0434_0

>  <ref_mols>  (367) 
x0434_0

>  <creator>  (367) 
Will Poole

>  <energy minimised>  (367) 
True

$$$$
WPC0658_minimised.pdb
     RDKit          3D

 23 25  0  0  0  0  0  0  0  0999 V2000
    8.4910    0.0130   19.8970 O   0  0  0  0  0  0  0  0  0  0  0  0
    7.7180   -0.2060   20.8100 C   0  0  0  0  0  0  0  0  0  0  0  0
    8.0880   -0.5600   22.0810 N   0  0  0  0  0  0  0  0  0  0  0  0
    9.4010   -0.4440   22.5780 C   0  0  0  0  0  0  0  0  0  0  0  0
   10.4880   -0.9350   21.8420 C   0  0  0  0  0  0  0  0  0  0  0  0
   11.7970   -0.5920   22.1990 C   0  0  0  0  0  0  0  0  0  0  0  0
   12.0230    0.2410   23.3060 C   0  0  0  0  0  0  0  0  0  0  0  0
   13.4230    0.7350   23.6150 C   0  0  0  0  0  0  0  0  0  0  0  0
   13.8220    1.9060   22.8180 N   0  0  0  0  0  0  0  0  0  0  0  0
   13.2970    3.1570   22.9130 C   0  0  0  0  0  0  0  0  0  0  0  0
   14.0810    4.1310   22.5230 N   0  0  0  0  0  0  0  0  0  0  0  0
   13.4790    5.3480   22.7400 C   0  0  0  0  0  0  0  0  0  0  0  0
   12.2630    5.2760   23.3750 C   0  0  0  0  0  0  0  0  0  0  0  0
   11.7980    3.6250   23.6770 S   0  0  0  0  0  0  0  0  0  0  0  0
   10.9380    0.6040   24.1300 C   0  0  0  0  0  0  0  0  0  0  0  0
    9.6270    0.2790   23.7550 C   0  0  0  0  0  0  0  0  0  0  0  0
    6.3660   -0.0720   20.6750 N   0  0  0  0  0  0  0  0  0  0  0  0
    5.7190    0.5200   19.5650 C   0  0  0  0  0  0  0  0  0  0  0  0
    4.7660    1.5210   19.7890 C   0  0  0  0  0  0  0  0  0  0  0  0
    4.2310    2.1720   18.6700 C   0  0  0  0  0  0  0  0  0  0  0  0
    4.6690    1.8170   17.3860 C   0  0  0  0  0  0  0  0  0  0  0  0
    5.5550    0.8200   17.1590 N   0  0  0  0  0  0  0  0  0  0  0  0
    6.0800    0.2040   18.2370 C   0  0  0  0  0  0  0  0  0  0  0  0
  1  2  2  0
  2  3  1  0
  2 17  1  0
  3  4  1  0
  4  5  2  0
  4 16  1  0
  5  6  1  0
  6  7  2  0
  7  8  1  0
  7 15  1  0
  8  9  1  0
  9 10  1  0
 10 11  2  0
 10 14  1  0
 11 12  1  0
 12 13  2  0
 13 14  1  0
 15 16  2  0
 17 18  1  0
 18 19  2  0
 18 23  1  0
 19 20  1  0
 20 21  2  0
 21 22  1  0
 22 23  2  0
M  END
>  <original SMILES>  (368) 
O=C(Nc1ccc(CNc2nccs2)cc1)Nc1cccnc1

>  <AutoDock Predicted Affinity>  (368) 
-6.536905

>  <ref_pdb>  (368) 
x0434_0

>  <ref_mols>  (368) 
x0434_0

>  <creator>  (368) 
Will Poole

>  <energy minimised>  (368) 
True

$$$$
WPC0901_minimised.pdb
     RDKit          3D

 24 26  0  0  0  0  0  0  0  0999 V2000
    8.5750   -0.0820   19.8670 O   0  0  0  0  0  0  0  0  0  0  0  0
    7.8000   -0.3270   20.7720 C   0  0  0  0  0  0  0  0  0  0  0  0
    8.1680   -0.6930   22.0390 N   0  0  0  0  0  0  0  0  0  0  0  0
    9.4680   -0.5340   22.5530 C   0  0  0  0  0  0  0  0  0  0  0  0
   10.5790   -1.0360   21.8590 C   0  0  0  0  0  0  0  0  0  0  0  0
   11.8760   -0.6690   22.2410 C   0  0  0  0  0  0  0  0  0  0  0  0
   12.0620    0.2030   23.3270 C   0  0  0  0  0  0  0  0  0  0  0  0
   13.4450    0.7220   23.6710 C   0  0  0  0  0  0  0  0  0  0  0  0
   13.8100    1.9200   22.9070 N   0  0  0  0  0  0  0  0  0  0  0  0
   13.3020    3.1650   23.0370 C   0  0  0  0  0  0  0  0  0  0  0  0
   12.2390    3.3600   23.7920 N   0  0  0  0  0  0  0  0  0  0  0  0
   11.8730    4.6310   23.8770 C   0  0  0  0  0  0  0  0  0  0  0  0
   12.5400    5.6590   23.3580 N   0  0  0  0  0  0  0  0  0  0  0  0
   13.6190    5.3160   22.6530 C   0  0  0  0  0  0  0  0  0  0  0  0
   14.0500    4.0760   22.4540 N   0  0  0  0  0  0  0  0  0  0  0  0
   10.9500    0.6080   24.0900 C   0  0  0  0  0  0  0  0  0  0  0  0
    9.6540    0.2500   23.6980 C   0  0  0  0  0  0  0  0  0  0  0  0
    6.4450   -0.2060   20.6380 N   0  0  0  0  0  0  0  0  0  0  0  0
    5.7910    0.4110   19.5470 C   0  0  0  0  0  0  0  0  0  0  0  0
    4.8330    1.3990   19.8020 C   0  0  0  0  0  0  0  0  0  0  0  0
    4.2860    2.0750   18.7050 C   0  0  0  0  0  0  0  0  0  0  0  0
    4.7200    1.7580   17.4100 C   0  0  0  0  0  0  0  0  0  0  0  0
    5.6120    0.7750   17.1520 N   0  0  0  0  0  0  0  0  0  0  0  0
    6.1480    0.1330   18.2090 C   0  0  0  0  0  0  0  0  0  0  0  0
  1  2  2  0
  2  3  1  0
  2 18  1  0
  3  4  1  0
  4  5  2  0
  4 17  1  0
  5  6  1  0
  6  7  2  0
  7  8  1  0
  7 16  1  0
  8  9  1  0
  9 10  1  0
 10 11  2  0
 10 15  1  0
 11 12  1  0
 12 13  2  0
 13 14  1  0
 14 15  2  0
 16 17  2  0
 18 19  1  0
 19 20  2  0
 19 24  1  0
 20 21  1  0
 21 22  2  0
 22 23  1  0
 23 24  2  0
M  END
>  <original SMILES>  (369) 
O=C(Nc1ccc(CNc2ncncn2)cc1)Nc1cccnc1

>  <AutoDock Predicted Affinity>  (369) 
-6.612595

>  <ref_pdb>  (369) 
x0434_0

>  <ref_mols>  (369) 
x0434_0

>  <creator>  (369) 
Will Poole

>  <energy minimised>  (369) 
True

$$$$
WPC1023_minimised.pdb
     RDKit          3D

 23 25  0  0  0  0  0  0  0  0999 V2000
    8.4950    0.1950   19.8250 O   0  0  0  0  0  0  0  0  0  0  0  0
    7.7610   -0.0370   20.7670 C   0  0  0  0  0  0  0  0  0  0  0  0
    8.2040   -0.2880   22.0360 N   0  0  0  0  0  0  0  0  0  0  0  0
    9.5360   -0.0970   22.4530 C   0  0  0  0  0  0  0  0  0  0  0  0
   10.5970   -0.6130   21.6940 C   0  0  0  0  0  0  0  0  0  0  0  0
   11.9190   -0.2630   21.9930 C   0  0  0  0  0  0  0  0  0  0  0  0
   12.1850    0.5860   23.0770 C   0  0  0  0  0  0  0  0  0  0  0  0
   13.6130    0.9640   23.3990 C   0  0  0  0  0  0  0  0  0  0  0  0
   14.0830    2.1920   22.7410 N   0  0  0  0  0  0  0  0  0  0  0  0
   13.4820    3.4120   22.8530 C   0  0  0  0  0  0  0  0  0  0  0  0
   12.1600    3.6830   22.6980 N   0  0  0  0  0  0  0  0  0  0  0  0
   11.9580    4.9860   23.0180 N   0  0  0  0  0  0  0  0  0  0  0  0
   13.1400    5.4490   23.3210 N   0  0  0  0  0  0  0  0  0  0  0  0
   14.1160    4.4920   23.2180 N   0  0  0  0  0  0  0  0  0  0  0  0
   11.1270    1.0330   23.8930 C   0  0  0  0  0  0  0  0  0  0  0  0
    9.8030    0.7040   23.5720 C   0  0  0  0  0  0  0  0  0  0  0  0
    6.4000   -0.0090   20.6570 N   0  0  0  0  0  0  0  0  0  0  0  0
    5.7090    0.5360   19.5490 C   0  0  0  0  0  0  0  0  0  0  0  0
    4.7450    1.5250   19.7740 C   0  0  0  0  0  0  0  0  0  0  0  0
    4.2030    2.1700   18.6560 C   0  0  0  0  0  0  0  0  0  0  0  0
    4.6510    1.8270   17.3730 C   0  0  0  0  0  0  0  0  0  0  0  0
    5.5410    0.8360   17.1430 N   0  0  0  0  0  0  0  0  0  0  0  0
    6.0650    0.2160   18.2200 C   0  0  0  0  0  0  0  0  0  0  0  0
  1  2  2  0
  2  3  1  0
  2 17  1  0
  3  4  1  0
  4  5  2  0
  4 16  1  0
  5  6  1  0
  6  7  2  0
  7  8  1  0
  7 15  1  0
  8  9  1  0
  9 10  1  0
 10 11  1  0
 10 14  2  0
 11 12  1  0
 12 13  2  0
 13 14  1  0
 15 16  2  0
 17 18  1  0
 18 19  2  0
 18 23  1  0
 19 20  1  0
 20 21  2  0
 21 22  1  0
 22 23  2  0
M  END
>  <original SMILES>  (370) 
O=C(Nc1ccc(CNc2nnn[nH]2)cc1)Nc1cccnc1

>  <AutoDock Predicted Affinity>  (370) 
-6.45438

>  <ref_pdb>  (370) 
x0434_0

>  <ref_mols>  (370) 
x0434_0

>  <creator>  (370) 
Will Poole

>  <energy minimised>  (370) 
True

$$$$
WPC0950_minimised.pdb
     RDKit          3D

 23 25  0  0  0  0  0  0  0  0999 V2000
    8.5510    0.1440   19.9060 O   0  0  0  0  0  0  0  0  0  0  0  0
    7.8070   -0.0370   20.8510 C   0  0  0  0  0  0  0  0  0  0  0  0
    8.2320   -0.2840   22.1270 N   0  0  0  0  0  0  0  0  0  0  0  0
    9.5680   -0.1350   22.5450 C   0  0  0  0  0  0  0  0  0  0  0  0
   10.5970   -0.8340   21.8960 C   0  0  0  0  0  0  0  0  0  0  0  0
   11.9370   -0.5430   22.1850 C   0  0  0  0  0  0  0  0  0  0  0  0
   12.2490    0.4570   23.1220 C   0  0  0  0  0  0  0  0  0  0  0  0
   13.6890    0.8590   23.3670 C   0  0  0  0  0  0  0  0  0  0  0  0
   14.1300    1.9340   22.4630 N   0  0  0  0  0  0  0  0  0  0  0  0
   13.5580    3.2270   22.5740 N   0  0  0  0  0  0  0  0  0  0  0  0
   12.2830    3.6400   22.2280 C   0  0  0  0  0  0  0  0  0  0  0  0
   12.1430    4.9220   22.5210 N   0  0  0  0  0  0  0  0  0  0  0  0
   13.3410    5.3850   22.9940 N   0  0  0  0  0  0  0  0  0  0  0  0
   14.1920    4.3780   22.9910 C   0  0  0  0  0  0  0  0  0  0  0  0
   11.2140    1.0960   23.8300 C   0  0  0  0  0  0  0  0  0  0  0  0
    9.8760    0.8040   23.5380 C   0  0  0  0  0  0  0  0  0  0  0  0
    6.4460    0.0400   20.7450 N   0  0  0  0  0  0  0  0  0  0  0  0
    5.7590    0.5620   19.6240 C   0  0  0  0  0  0  0  0  0  0  0  0
    4.7960    1.5570   19.8290 C   0  0  0  0  0  0  0  0  0  0  0  0
    4.2340    2.1620   18.6990 C   0  0  0  0  0  0  0  0  0  0  0  0
    4.6530    1.7660   17.4200 C   0  0  0  0  0  0  0  0  0  0  0  0
    5.5420    0.7680   17.2110 N   0  0  0  0  0  0  0  0  0  0  0  0
    6.0950    0.1970   18.3010 C   0  0  0  0  0  0  0  0  0  0  0  0
  1  2  2  0
  2  3  1  0
  2 17  1  0
  3  4  1  0
  4  5  2  0
  4 16  1  0
  5  6  1  0
  6  7  2  0
  7  8  1  0
  7 15  1  0
  8  9  1  0
  9 10  1  0
 10 11  1  0
 10 14  1  0
 11 12  2  0
 12 13  1  0
 13 14  2  0
 15 16  2  0
 17 18  1  0
 18 19  2  0
 18 23  1  0
 19 20  1  0
 20 21  2  0
 21 22  1  0
 22 23  2  0
M  END
>  <original SMILES>  (371) 
O=C(Nc1ccc(CNn2cnnc2)cc1)Nc1cccnc1

>  <AutoDock Predicted Affinity>  (371) 
-6.059005

>  <ref_pdb>  (371) 
x0434_0

>  <ref_mols>  (371) 
x0434_0

>  <creator>  (371) 
Will Poole

>  <energy minimised>  (371) 
True

$$$$
WPC0377_minimised.pdb
     RDKit          3D

 18 19  0  0  0  0  0  0  0  0999 V2000
    8.5430    0.1450   19.9050 O   0  0  0  0  0  0  0  0  0  0  0  0
    7.8190    0.0300   20.8730 C   0  0  0  0  0  0  0  0  0  0  0  0
    8.2790   -0.1820   22.1420 N   0  0  0  0  0  0  0  0  0  0  0  0
    9.6440   -0.1450   22.4860 C   0  0  0  0  0  0  0  0  0  0  0  0
   10.5280   -1.0940   21.9550 C   0  0  0  0  0  0  0  0  0  0  0  0
   11.9050   -0.9780   22.1900 C   0  0  0  0  0  0  0  0  0  0  0  0
   12.4000    0.0960   22.9480 C   0  0  0  0  0  0  0  0  0  0  0  0
   13.8910    0.2630   23.1310 C   0  0  0  0  0  0  0  0  0  0  0  0
   14.3550   -0.7020   24.0630 O   0  0  0  0  0  0  0  0  0  0  0  0
   11.5090    1.0330   23.4990 C   0  0  0  0  0  0  0  0  0  0  0  0
   10.1300    0.9090   23.2720 C   0  0  0  0  0  0  0  0  0  0  0  0
    6.4600    0.1450   20.7900 N   0  0  0  0  0  0  0  0  0  0  0  0
    5.7670    0.6400   19.6580 C   0  0  0  0  0  0  0  0  0  0  0  0
    4.8020    1.6370   19.8430 C   0  0  0  0  0  0  0  0  0  0  0  0
    4.2470    2.2230   18.6990 C   0  0  0  0  0  0  0  0  0  0  0  0
    4.6810    1.8160   17.4300 C   0  0  0  0  0  0  0  0  0  0  0  0
    5.5690    0.8140   17.2410 N   0  0  0  0  0  0  0  0  0  0  0  0
    6.1050    0.2510   18.3420 C   0  0  0  0  0  0  0  0  0  0  0  0
  1  2  2  0
  2  3  1  0
  2 12  1  0
  3  4  1  0
  4  5  2  0
  4 11  1  0
  5  6  1  0
  6  7  2  0
  7  8  1  0
  7 10  1  0
  8  9  1  0
 10 11  2  0
 12 13  1  0
 13 14  2  0
 13 18  1  0
 14 15  1  0
 15 16  2  0
 16 17  1  0
 17 18  2  0
M  END
>  <original SMILES>  (372) 
O=C(Nc1ccc(CO)cc1)Nc1cccnc1

>  <AutoDock Predicted Affinity>  (372) 
-5.66006

>  <ref_pdb>  (372) 
x0434_0

>  <ref_mols>  (372) 
x0434_0

>  <creator>  (372) 
Will Poole

>  <energy minimised>  (372) 
True

$$$$
WPC1065_minimised.pdb
     RDKit          3D

 24 25  0  0  0  0  0  0  0  0999 V2000
    8.5730    0.0300   19.8510 O   0  0  0  0  0  0  0  0  0  0  0  0
    7.7900   -0.1960   20.7540 C   0  0  0  0  0  0  0  0  0  0  0  0
    8.1460   -0.5400   22.0290 N   0  0  0  0  0  0  0  0  0  0  0  0
    9.4490   -0.4210   22.5490 C   0  0  0  0  0  0  0  0  0  0  0  0
   10.5490   -0.9540   21.8600 C   0  0  0  0  0  0  0  0  0  0  0  0
   11.8530   -0.6670   22.2840 C   0  0  0  0  0  0  0  0  0  0  0  0
   12.0560    0.1470   23.4100 C   0  0  0  0  0  0  0  0  0  0  0  0
   13.4600    0.5570   23.8100 C   0  0  0  0  0  0  0  0  0  0  0  0
   13.9210    1.6130   22.9700 O   0  0  0  0  0  0  0  0  0  0  0  0
   13.3170    2.8210   22.9900 C   0  0  0  0  0  0  0  0  0  0  0  0
   12.4970    3.2330   23.7880 O   0  0  0  0  0  0  0  0  0  0  0  0
   13.8420    3.5310   21.9590 N   0  0  0  0  0  0  0  0  0  0  0  0
   13.3470    4.8320   21.5140 C   0  0  0  0  0  0  0  0  0  0  0  0
   14.1750    5.9660   22.1250 C   0  0  0  0  0  0  0  0  0  0  0  0
   14.2590    7.0770   21.2410 O   0  0  0  0  0  0  0  0  0  0  0  0
   10.9510    0.6190   24.1420 C   0  0  0  0  0  0  0  0  0  0  0  0
    9.6490    0.3370   23.7090 C   0  0  0  0  0  0  0  0  0  0  0  0
    6.4370   -0.0790   20.6080 N   0  0  0  0  0  0  0  0  0  0  0  0
    5.7900    0.5170   19.5010 C   0  0  0  0  0  0  0  0  0  0  0  0
    4.8180    1.4980   19.7350 C   0  0  0  0  0  0  0  0  0  0  0  0
    4.2860    2.1630   18.6240 C   0  0  0  0  0  0  0  0  0  0  0  0
    4.7460    1.8440   17.3390 C   0  0  0  0  0  0  0  0  0  0  0  0
    5.6470    0.8640   17.1000 N   0  0  0  0  0  0  0  0  0  0  0  0
    6.1680    0.2320   18.1710 C   0  0  0  0  0  0  0  0  0  0  0  0
  1  2  2  0
  2  3  1  0
  2 18  1  0
  3  4  1  0
  4  5  2  0
  4 17  1  0
  5  6  1  0
  6  7  2  0
  7  8  1  0
  7 16  1  0
  8  9  1  0
  9 10  1  0
 10 12  1  0
 10 11  2  0
 12 13  1  0
 13 14  1  0
 14 15  1  0
 16 17  2  0
 18 19  1  0
 19 20  2  0
 19 24  1  0
 20 21  1  0
 21 22  2  0
 22 23  1  0
 23 24  2  0
M  END
>  <original SMILES>  (373) 
O=C(Nc1ccc(COC(=O)NCCO)cc1)Nc1cccnc1

>  <AutoDock Predicted Affinity>  (373) 
-5.53846

>  <ref_pdb>  (373) 
x0434_0

>  <ref_mols>  (373) 
x0434_0

>  <creator>  (373) 
Will Poole

>  <energy minimised>  (373) 
True

$$$$
WPC0829_minimised.pdb
     RDKit          3D

 21 22  0  0  0  0  0  0  0  0999 V2000
    8.4010    0.0140   19.7770 O   0  0  0  0  0  0  0  0  0  0  0  0
    7.6130   -0.2810   20.6570 C   0  0  0  0  0  0  0  0  0  0  0  0
    7.9570   -0.6520   21.9280 N   0  0  0  0  0  0  0  0  0  0  0  0
    9.2100   -0.3820   22.5090 C   0  0  0  0  0  0  0  0  0  0  0  0
   10.4000   -0.6280   21.8070 C   0  0  0  0  0  0  0  0  0  0  0  0
   11.6150   -0.1150   22.2790 C   0  0  0  0  0  0  0  0  0  0  0  0
   11.6400    0.6180   23.4750 C   0  0  0  0  0  0  0  0  0  0  0  0
   12.9250    1.2630   23.9360 C   0  0  0  0  0  0  0  0  0  0  0  0
   13.2120    2.4500   23.1760 O   0  0  0  0  0  0  0  0  0  0  0  0
   12.4990    3.6080   23.3000 C   0  0  0  0  0  0  0  0  0  0  0  0
   11.3350    3.9860   24.4430 S   0  0  0  0  0  0  0  0  0  0  0  0
   13.2410    4.8630   22.2640 S   0  0  0  0  0  0  0  0  0  0  0  0
   10.4660    0.7640   24.2370 C   0  0  0  0  0  0  0  0  0  0  0  0
    9.2490    0.2760   23.7460 C   0  0  0  0  0  0  0  0  0  0  0  0
    6.2610   -0.2020   20.4900 N   0  0  0  0  0  0  0  0  0  0  0  0
    5.6350    0.4540   19.4060 C   0  0  0  0  0  0  0  0  0  0  0  0
    4.6850    1.4480   19.6670 C   0  0  0  0  0  0  0  0  0  0  0  0
    4.1930    2.1780   18.5780 C   0  0  0  0  0  0  0  0  0  0  0  0
    4.6740    1.9080   17.2890 C   0  0  0  0  0  0  0  0  0  0  0  0
    5.5620    0.9230   17.0250 N   0  0  0  0  0  0  0  0  0  0  0  0
    6.0380    0.2240   18.0740 C   0  0  0  0  0  0  0  0  0  0  0  0
  1  2  2  0
  2  3  1  0
  2 15  1  0
  3  4  1  0
  4  5  2  0
  4 14  1  0
  5  6  1  0
  6  7  2  0
  7  8  1  0
  7 13  1  0
  8  9  1  0
  9 10  1  0
 10 11  2  0
 10 12  1  0
 13 14  2  0
 15 16  1  0
 16 17  2  0
 16 21  1  0
 17 18  1  0
 18 19  2  0
 19 20  1  0
 20 21  2  0
M  END
>  <original SMILES>  (374) 
O=C(Nc1ccc(COC(=S)S)cc1)Nc1cccnc1

>  <AutoDock Predicted Affinity>  (374) 
-5.52858

>  <ref_pdb>  (374) 
x0434_0

>  <ref_mols>  (374) 
x0434_0

>  <creator>  (374) 
Will Poole

>  <energy minimised>  (374) 
True

$$$$
WPC0742_minimised.pdb
     RDKit          3D

 21 22  0  0  0  0  0  0  0  0999 V2000
    8.4950   -0.0010   19.8160 O   0  0  0  0  0  0  0  0  0  0  0  0
    7.7280   -0.2620   20.7230 C   0  0  0  0  0  0  0  0  0  0  0  0
    8.1110   -0.5900   21.9950 N   0  0  0  0  0  0  0  0  0  0  0  0
    9.4010   -0.3570   22.5060 C   0  0  0  0  0  0  0  0  0  0  0  0
   10.5380   -0.7600   21.7900 C   0  0  0  0  0  0  0  0  0  0  0  0
   11.8100   -0.3200   22.1780 C   0  0  0  0  0  0  0  0  0  0  0  0
   11.9440    0.5110   23.3010 C   0  0  0  0  0  0  0  0  0  0  0  0
   13.3020    1.0710   23.6690 C   0  0  0  0  0  0  0  0  0  0  0  0
   13.6210    2.2390   22.8890 O   0  0  0  0  0  0  0  0  0  0  0  0
   12.8680    3.4520   22.9930 N   0  0  0  0  0  0  0  0  0  0  0  0
   12.1110    3.5770   23.9510 O   0  0  0  0  0  0  0  0  0  0  0  0
   13.3300    4.3840   22.3440 O   0  0  0  0  0  0  0  0  0  0  0  0
   10.8140    0.8270   24.0800 C   0  0  0  0  0  0  0  0  0  0  0  0
    9.5420    0.4020   23.6750 C   0  0  0  0  0  0  0  0  0  0  0  0
    6.3710   -0.1910   20.5840 N   0  0  0  0  0  0  0  0  0  0  0  0
    5.7150    0.4260   19.4940 C   0  0  0  0  0  0  0  0  0  0  0  0
    4.7620    1.4200   19.7500 C   0  0  0  0  0  0  0  0  0  0  0  0
    4.2390    2.1160   18.6540 C   0  0  0  0  0  0  0  0  0  0  0  0
    4.6920    1.8160   17.3620 C   0  0  0  0  0  0  0  0  0  0  0  0
    5.5770    0.8270   17.1030 N   0  0  0  0  0  0  0  0  0  0  0  0
    6.0860    0.1610   18.1590 C   0  0  0  0  0  0  0  0  0  0  0  0
  1  2  2  0
  2  3  1  0
  2 15  1  0
  3  4  1  0
  4  5  2  0
  4 14  1  0
  5  6  1  0
  6  7  2  0
  7  8  1  0
  7 13  1  0
  8  9  1  0
  9 10  1  0
 10 11  1  0
 10 12  2  0
 13 14  2  0
 15 16  1  0
 16 17  2  0
 16 21  1  0
 17 18  1  0
 18 19  2  0
 19 20  1  0
 20 21  2  0
M  CHG  2  10   1  11  -1
M  END
>  <original SMILES>  (375) 
O=C(Nc1ccc(CO[N+](=O)[O-])cc1)Nc1cccnc1

>  <AutoDock Predicted Affinity>  (375) 
-5.765435

>  <ref_pdb>  (375) 
x0434_0

>  <ref_mols>  (375) 
x0434_0

>  <creator>  (375) 
Will Poole

>  <energy minimised>  (375) 
True

$$$$
WPC0754_minimised.pdb
     RDKit          3D

 18 19  0  0  0  0  0  0  0  0999 V2000
    8.7730    0.1480   19.8860 O   0  0  0  0  0  0  0  0  0  0  0  0
    8.1070    0.0030   20.8910 C   0  0  0  0  0  0  0  0  0  0  0  0
    8.6480   -0.1370   22.1410 N   0  0  0  0  0  0  0  0  0  0  0  0
   10.0120    0.0970   22.4160 C   0  0  0  0  0  0  0  0  0  0  0  0
   11.0030   -0.6370   21.7480 C   0  0  0  0  0  0  0  0  0  0  0  0
   12.3510   -0.2610   21.8500 C   0  0  0  0  0  0  0  0  0  0  0  0
   12.7130    0.8480   22.6340 C   0  0  0  0  0  0  0  0  0  0  0  0
   14.1590    1.3060   22.6680 C   0  0  0  0  0  0  0  0  0  0  0  0
   14.3110    3.1460   22.5800 S   0  0  0  0  0  0  0  0  0  0  0  0
   11.7230    1.5370   23.3600 C   0  0  0  0  0  0  0  0  0  0  0  0
   10.3750    1.1640   23.2480 C   0  0  0  0  0  0  0  0  0  0  0  0
    6.7390    0.0270   20.8630 N   0  0  0  0  0  0  0  0  0  0  0  0
    5.9860    0.4940   19.7560 C   0  0  0  0  0  0  0  0  0  0  0  0
    5.0280    1.4930   19.9670 C   0  0  0  0  0  0  0  0  0  0  0  0
    4.4260    2.0650   18.8400 C   0  0  0  0  0  0  0  0  0  0  0  0
    4.8110    1.6470   17.5590 C   0  0  0  0  0  0  0  0  0  0  0  0
    5.6890    0.6410   17.3450 N   0  0  0  0  0  0  0  0  0  0  0  0
    6.2720    0.0920   18.4310 C   0  0  0  0  0  0  0  0  0  0  0  0
  1  2  2  0
  2  3  1  0
  2 12  1  0
  3  4  1  0
  4  5  2  0
  4 11  1  0
  5  6  1  0
  6  7  2  0
  7  8  1  0
  7 10  1  0
  8  9  1  0
 10 11  2  0
 12 13  1  0
 13 14  2  0
 13 18  1  0
 14 15  1  0
 15 16  2  0
 16 17  1  0
 17 18  2  0
M  END
>  <original SMILES>  (376) 
O=C(Nc1ccc(CS)cc1)Nc1cccnc1

>  <AutoDock Predicted Affinity>  (376) 
-5.24094

>  <ref_pdb>  (376) 
x0434_0

>  <ref_mols>  (376) 
x0434_0

>  <creator>  (376) 
Will Poole

>  <energy minimised>  (376) 
True

$$$$
WPC0571_minimised.pdb
     RDKit          3D

 24 26  0  0  0  0  0  0  0  0999 V2000
    8.5310    0.1670   19.9310 O   0  0  0  0  0  0  0  0  0  0  0  0
    7.7860   -0.2050   20.8170 C   0  0  0  0  0  0  0  0  0  0  0  0
    8.2010   -0.6410   22.0490 N   0  0  0  0  0  0  0  0  0  0  0  0
    9.5190   -0.5080   22.5360 C   0  0  0  0  0  0  0  0  0  0  0  0
   10.6140   -0.7920   21.7080 C   0  0  0  0  0  0  0  0  0  0  0  0
   11.9070   -0.4070   22.0790 C   0  0  0  0  0  0  0  0  0  0  0  0
   12.1080    0.2310   23.3100 C   0  0  0  0  0  0  0  0  0  0  0  0
   13.4740    0.7940   23.6350 C   0  0  0  0  0  0  0  0  0  0  0  0
   13.8870    2.2810   22.6180 S   0  0  0  0  0  0  0  0  0  0  0  0
   12.9860    3.6070   23.2880 C   0  0  0  0  0  0  0  0  0  0  0  0
   13.4230    4.7840   23.5470 N   0  0  0  0  0  0  0  0  0  0  0  0
   12.5250    5.8090   24.1240 C   0  0  0  0  0  0  0  0  0  0  0  0
   11.0760    5.5830   23.6390 C   0  0  0  0  0  0  0  0  0  0  0  0
   10.6230    4.1500   23.9420 C   0  0  0  0  0  0  0  0  0  0  0  0
   11.6930    3.2260   23.5630 N   0  0  0  0  0  0  0  0  0  0  0  0
   11.0310    0.3910   24.2040 C   0  0  0  0  0  0  0  0  0  0  0  0
    9.7330    0.0390   23.8080 C   0  0  0  0  0  0  0  0  0  0  0  0
    6.4270   -0.1790   20.6780 N   0  0  0  0  0  0  0  0  0  0  0  0
    5.7570    0.4240   19.5870 C   0  0  0  0  0  0  0  0  0  0  0  0
    4.7980    1.4130   19.8350 C   0  0  0  0  0  0  0  0  0  0  0  0
    4.2670    2.0930   18.7320 C   0  0  0  0  0  0  0  0  0  0  0  0
    4.7150    1.7790   17.4400 C   0  0  0  0  0  0  0  0  0  0  0  0
    5.6060    0.7930   17.1890 N   0  0  0  0  0  0  0  0  0  0  0  0
    6.1260    0.1470   18.2520 C   0  0  0  0  0  0  0  0  0  0  0  0
  1  2  2  0
  2  3  1  0
  2 18  1  0
  3  4  1  0
  4  5  2  0
  4 17  1  0
  5  6  1  0
  6  7  2  0
  7  8  1  0
  7 16  1  0
  8  9  1  0
  9 10  1  0
 10 11  2  0
 10 15  1  0
 11 12  1  0
 12 13  1  0
 13 14  1  0
 14 15  1  0
 16 17  2  0
 18 19  1  0
 19 20  2  0
 19 24  1  0
 20 21  1  0
 21 22  2  0
 22 23  1  0
 23 24  2  0
M  END
>  <original SMILES>  (377) 
O=C(Nc1ccc(CSC2=NCCCN2)cc1)Nc1cccnc1

>  <AutoDock Predicted Affinity>  (377) 
-6.158075

>  <ref_pdb>  (377) 
x0434_0

>  <ref_mols>  (377) 
x0434_0

>  <creator>  (377) 
Will Poole

>  <energy minimised>  (377) 
True

$$$$
WPC0767_minimised.pdb
     RDKit          3D

 24 26  0  0  0  0  0  0  0  0999 V2000
    8.5940    0.2960   20.0450 O   0  0  0  0  0  0  0  0  0  0  0  0
    7.8710   -0.1400   20.9210 C   0  0  0  0  0  0  0  0  0  0  0  0
    8.3090   -0.6160   22.1310 N   0  0  0  0  0  0  0  0  0  0  0  0
    9.6310   -0.4870   22.6110 C   0  0  0  0  0  0  0  0  0  0  0  0
   10.7230   -0.7040   21.7560 C   0  0  0  0  0  0  0  0  0  0  0  0
   12.0120   -0.3140   22.1360 C   0  0  0  0  0  0  0  0  0  0  0  0
   12.2150    0.2650   23.3950 C   0  0  0  0  0  0  0  0  0  0  0  0
   13.5610    0.8710   23.7200 C   0  0  0  0  0  0  0  0  0  0  0  0
   13.7490    2.5680   23.0020 S   0  0  0  0  0  0  0  0  0  0  0  0
   12.2780    3.4700   23.6560 C   0  0  0  0  0  0  0  0  0  0  0  0
   11.0880    3.3400   22.6840 C   0  0  0  0  0  0  0  0  0  0  0  0
    9.8520    4.0890   23.2260 C   0  0  0  0  0  0  0  0  0  0  0  0
   10.1660    5.5810   23.4610 C   0  0  0  0  0  0  0  0  0  0  0  0
   11.3910    5.7620   24.3840 C   0  0  0  0  0  0  0  0  0  0  0  0
   12.6160    4.9650   23.8720 C   0  0  0  0  0  0  0  0  0  0  0  0
   11.1470    0.3530   24.3100 C   0  0  0  0  0  0  0  0  0  0  0  0
    9.8510   -0.0110   23.9110 C   0  0  0  0  0  0  0  0  0  0  0  0
    6.5120   -0.1680   20.7810 N   0  0  0  0  0  0  0  0  0  0  0  0
    5.8240    0.4020   19.6840 C   0  0  0  0  0  0  0  0  0  0  0  0
    4.8600    1.3910   19.9140 C   0  0  0  0  0  0  0  0  0  0  0  0
    4.3130    2.0380   18.7980 C   0  0  0  0  0  0  0  0  0  0  0  0
    4.7460    1.6850   17.5110 C   0  0  0  0  0  0  0  0  0  0  0  0
    5.6430    0.7010   17.2770 N   0  0  0  0  0  0  0  0  0  0  0  0
    6.1830    0.0940   18.3530 C   0  0  0  0  0  0  0  0  0  0  0  0
  1  2  2  0
  2  3  1  0
  2 18  1  0
  3  4  1  0
  4  5  2  0
  4 17  1  0
  5  6  1  0
  6  7  2  0
  7  8  1  0
  7 16  1  0
  8  9  1  0
  9 10  1  0
 10 11  1  0
 10 15  1  0
 11 12  1  0
 12 13  1  0
 13 14  1  0
 14 15  1  0
 16 17  2  0
 18 19  1  0
 19 20  2  0
 19 24  1  0
 20 21  1  0
 21 22  2  0
 22 23  1  0
 23 24  2  0
M  END
>  <original SMILES>  (378) 
O=C(Nc1ccc(CSC2CCCCC2)cc1)Nc1cccnc1

>  <AutoDock Predicted Affinity>  (378) 
-6.18505

>  <ref_pdb>  (378) 
x0434_0

>  <ref_mols>  (378) 
x0434_0

>  <creator>  (378) 
Will Poole

>  <energy minimised>  (378) 
True

$$$$
WPC0554_minimised.pdb
     RDKit          3D

 23 25  0  0  1  0  0  0  0  0999 V2000
    8.5890    0.0910   19.9220 O   0  0  0  0  0  0  0  0  0  0  0  0
    7.8540   -0.2240   20.8380 C   0  0  0  0  0  0  0  0  0  0  0  0
    8.2820   -0.6400   22.0730 N   0  0  0  0  0  0  0  0  0  0  0  0
    9.6150   -0.5500   22.5310 C   0  0  0  0  0  0  0  0  0  0  0  0
   10.6820   -0.8900   21.6870 C   0  0  0  0  0  0  0  0  0  0  0  0
   11.9990   -0.5670   22.0330 C   0  0  0  0  0  0  0  0  0  0  0  0
   12.2550    0.0700   23.2540 C   0  0  0  0  0  0  0  0  0  0  0  0
   13.6590    0.5490   23.5650 C   0  0  0  0  0  0  0  0  0  0  0  0
   14.2600    1.8630   22.4200 S   0  0  0  0  0  0  0  0  0  0  0  0
   13.4660    3.3290   22.9170 C   0  0  0  0  0  0  0  0  0  0  0  0
   14.0420    4.4500   23.1580 N   0  0  0  0  0  0  0  0  0  0  0  0
   13.1030    5.4890   23.6300 C   0  0  0  0  0  0  0  0  0  0  0  0
   11.6770    5.0570   23.2420 C   0  0  0  0  0  0  0  0  0  0  0  0
   11.7550    3.2420   23.1060 S   0  0  0  0  0  0  0  0  0  0  0  0
   11.2000    0.2890   24.1620 C   0  0  0  0  0  0  0  0  0  0  0  0
    9.8790   -0.0050   23.7930 C   0  0  0  0  0  0  0  0  0  0  0  0
    6.4930   -0.1560   20.7270 N   0  0  0  0  0  0  0  0  0  0  0  0
    5.8150    0.4320   19.6320 C   0  0  0  0  0  0  0  0  0  0  0  0
    4.8620    1.4290   19.8740 C   0  0  0  0  0  0  0  0  0  0  0  0
    4.3190    2.0910   18.7660 C   0  0  0  0  0  0  0  0  0  0  0  0
    4.7470    1.7510   17.4750 C   0  0  0  0  0  0  0  0  0  0  0  0
    5.6300    0.7570   17.2290 N   0  0  0  0  0  0  0  0  0  0  0  0
    6.1630    0.1290   18.2970 C   0  0  0  0  0  0  0  0  0  0  0  0
  1  2  2  0
  2  3  1  0
  2 17  1  0
  3  4  1  0
  4  5  2  0
  4 16  1  0
  5  6  1  0
  6  7  2  0
  7  8  1  0
  7 15  1  0
  8  9  1  0
 10  9  1  0
 10 11  1  0
 10 14  1  0
 11 12  1  0
 12 13  1  0
 13 14  1  0
 15 16  2  0
 17 18  1  0
 18 19  2  0
 18 23  1  0
 19 20  1  0
 20 21  2  0
 21 22  1  0
 22 23  2  0
M  END
>  <original SMILES>  (379) 
O=C(Nc1ccc(CSC2NCCS2)cc1)Nc1cccnc1

>  <AutoDock Predicted Affinity>  (379) 
-5.996947

>  <ref_pdb>  (379) 
x0434_0

>  <ref_mols>  (379) 
x0434_0

>  <creator>  (379) 
Will Poole

>  <energy minimised>  (379) 
True

$$$$
WPC0401_minimised.pdb
     RDKit          3D

 21 22  0  0  0  0  0  0  0  0999 V2000
    8.5030    0.0880   19.8900 O   0  0  0  0  0  0  0  0  0  0  0  0
    7.7360   -0.2400   20.7760 C   0  0  0  0  0  0  0  0  0  0  0  0
    8.1160   -0.6360   22.0310 N   0  0  0  0  0  0  0  0  0  0  0  0
    9.4050   -0.4350   22.5600 C   0  0  0  0  0  0  0  0  0  0  0  0
   10.5440   -0.7600   21.8070 C   0  0  0  0  0  0  0  0  0  0  0  0
   11.8070   -0.3120   22.2100 C   0  0  0  0  0  0  0  0  0  0  0  0
   11.9300    0.4460   23.3830 C   0  0  0  0  0  0  0  0  0  0  0  0
   13.2580    1.0700   23.7410 C   0  0  0  0  0  0  0  0  0  0  0  0
   13.4340    2.7950   23.0910 S   0  0  0  0  0  0  0  0  0  0  0  0
   11.7730    3.5540   23.3390 C   0  0  0  0  0  0  0  0  0  0  0  0
   11.8350    5.0500   22.9980 C   0  0  0  0  0  0  0  0  0  0  0  0
   10.5160    5.5750   22.8740 O   0  0  0  0  0  0  0  0  0  0  0  0
   10.8090    0.6570   24.2070 C   0  0  0  0  0  0  0  0  0  0  0  0
    9.5420    0.2280   23.7870 C   0  0  0  0  0  0  0  0  0  0  0  0
    6.3800   -0.1900   20.6240 N   0  0  0  0  0  0  0  0  0  0  0  0
    5.7260    0.4230   19.5320 C   0  0  0  0  0  0  0  0  0  0  0  0
    4.7690    1.4140   19.7780 C   0  0  0  0  0  0  0  0  0  0  0  0
    4.2440    2.0980   18.6750 C   0  0  0  0  0  0  0  0  0  0  0  0
    4.7010    1.7880   17.3850 C   0  0  0  0  0  0  0  0  0  0  0  0
    5.5930    0.8040   17.1370 N   0  0  0  0  0  0  0  0  0  0  0  0
    6.1020    0.1500   18.1990 C   0  0  0  0  0  0  0  0  0  0  0  0
  1  2  2  0
  2  3  1  0
  2 15  1  0
  3  4  1  0
  4  5  2  0
  4 14  1  0
  5  6  1  0
  6  7  2  0
  7  8  1  0
  7 13  1  0
  8  9  1  0
  9 10  1  0
 10 11  1  0
 11 12  1  0
 13 14  2  0
 15 16  1  0
 16 17  2  0
 16 21  1  0
 17 18  1  0
 18 19  2  0
 19 20  1  0
 20 21  2  0
M  END
>  <original SMILES>  (380) 
O=C(Nc1ccc(CSCCO)cc1)Nc1cccnc1

>  <AutoDock Predicted Affinity>  (380) 
-5.10479

>  <ref_pdb>  (380) 
x0434_0

>  <ref_mols>  (380) 
x0434_0

>  <creator>  (380) 
Will Poole

>  <energy minimised>  (380) 
True

$$$$
WPC0427_minimised.pdb
     RDKit          3D

 23 25  0  0  0  0  0  0  0  0999 V2000
    8.4720   -0.0300   19.7930 O   0  0  0  0  0  0  0  0  0  0  0  0
    7.7010   -0.1830   20.7220 C   0  0  0  0  0  0  0  0  0  0  0  0
    8.0780   -0.4730   22.0050 N   0  0  0  0  0  0  0  0  0  0  0  0
    9.4010   -0.3610   22.4750 C   0  0  0  0  0  0  0  0  0  0  0  0
   10.4540   -0.9680   21.7780 C   0  0  0  0  0  0  0  0  0  0  0  0
   11.7840   -0.6780   22.1120 C   0  0  0  0  0  0  0  0  0  0  0  0
   12.0590    0.2030   23.1690 C   0  0  0  0  0  0  0  0  0  0  0  0
   13.4920    0.5800   23.4770 C   0  0  0  0  0  0  0  0  0  0  0  0
   14.1470    1.8180   22.2950 S   0  0  0  0  0  0  0  0  0  0  0  0
   13.4260    3.3280   22.8230 C   0  0  0  0  0  0  0  0  0  0  0  0
   14.1740    4.4500   22.6710 C   0  0  0  0  0  0  0  0  0  0  0  0
   13.4390    5.4000   23.3370 N   0  0  0  0  0  0  0  0  0  0  0  0
   12.3170    4.8620   23.8780 N   0  0  0  0  0  0  0  0  0  0  0  0
   12.3210    3.5900   23.5850 N   0  0  0  0  0  0  0  0  0  0  0  0
   11.0020    0.7430   23.9230 C   0  0  0  0  0  0  0  0  0  0  0  0
    9.6730    0.4680   23.5710 C   0  0  0  0  0  0  0  0  0  0  0  0
    6.3500   -0.0270   20.5910 N   0  0  0  0  0  0  0  0  0  0  0  0
    5.7110    0.5670   19.4780 C   0  0  0  0  0  0  0  0  0  0  0  0
    4.7480    1.5580   19.7030 C   0  0  0  0  0  0  0  0  0  0  0  0
    4.2330    2.2300   18.5880 C   0  0  0  0  0  0  0  0  0  0  0  0
    4.7050    1.9100   17.3080 C   0  0  0  0  0  0  0  0  0  0  0  0
    5.5950    0.9190   17.0760 N   0  0  0  0  0  0  0  0  0  0  0  0
    6.0940    0.2760   18.1500 C   0  0  0  0  0  0  0  0  0  0  0  0
  1  2  2  0
  2  3  1  0
  2 17  1  0
  3  4  1  0
  4  5  2  0
  4 16  1  0
  5  6  1  0
  6  7  2  0
  7  8  1  0
  7 15  1  0
  8  9  1  0
  9 10  1  0
 10 11  2  0
 10 14  1  0
 11 12  1  0
 12 13  1  0
 13 14  2  0
 15 16  2  0
 17 18  1  0
 18 19  2  0
 18 23  1  0
 19 20  1  0
 20 21  2  0
 21 22  1  0
 22 23  2  0
M  END
>  <original SMILES>  (381) 
O=C(Nc1ccc(CSc2c[nH]nn2)cc1)Nc1cccnc1

>  <AutoDock Predicted Affinity>  (381) 
-6.181205

>  <ref_pdb>  (381) 
x0434_0

>  <ref_mols>  (381) 
x0434_0

>  <creator>  (381) 
Will Poole

>  <energy minimised>  (381) 
True

$$$$
WPC0757_minimised.pdb
     RDKit          3D

 24 26  0  0  0  0  0  0  0  0999 V2000
    8.5350    0.0850   19.9210 O   0  0  0  0  0  0  0  0  0  0  0  0
    7.7630   -0.2140   20.8120 C   0  0  0  0  0  0  0  0  0  0  0  0
    8.1360   -0.5920   22.0760 N   0  0  0  0  0  0  0  0  0  0  0  0
    9.4350   -0.4290   22.5960 C   0  0  0  0  0  0  0  0  0  0  0  0
   10.5520   -0.8350   21.8510 C   0  0  0  0  0  0  0  0  0  0  0  0
   11.8380   -0.4380   22.2360 C   0  0  0  0  0  0  0  0  0  0  0  0
   12.0060    0.3580   23.3790 C   0  0  0  0  0  0  0  0  0  0  0  0
   13.3660    0.9310   23.6970 C   0  0  0  0  0  0  0  0  0  0  0  0
   13.7260    2.4870   22.7670 S   0  0  0  0  0  0  0  0  0  0  0  0
   12.5140    3.7120   23.2300 C   0  0  0  0  0  0  0  0  0  0  0  0
   12.9570    4.9110   23.8050 C   0  0  0  0  0  0  0  0  0  0  0  0
   12.0430    5.9190   24.1530 C   0  0  0  0  0  0  0  0  0  0  0  0
   10.6770    5.7390   23.8830 C   0  0  0  0  0  0  0  0  0  0  0  0
   10.2310    4.5510   23.2840 C   0  0  0  0  0  0  0  0  0  0  0  0
   11.1500    3.5440   22.9480 C   0  0  0  0  0  0  0  0  0  0  0  0
   10.9000    0.6540   24.1980 C   0  0  0  0  0  0  0  0  0  0  0  0
    9.6120    0.2680   23.7990 C   0  0  0  0  0  0  0  0  0  0  0  0
    6.4060   -0.1520   20.6610 N   0  0  0  0  0  0  0  0  0  0  0  0
    5.7500    0.4450   19.5600 C   0  0  0  0  0  0  0  0  0  0  0  0
    4.7850    1.4310   19.7980 C   0  0  0  0  0  0  0  0  0  0  0  0
    4.2460    2.0940   18.6890 C   0  0  0  0  0  0  0  0  0  0  0  0
    4.6900    1.7630   17.4010 C   0  0  0  0  0  0  0  0  0  0  0  0
    5.5880    0.7810   17.1590 N   0  0  0  0  0  0  0  0  0  0  0  0
    6.1190    0.1550   18.2290 C   0  0  0  0  0  0  0  0  0  0  0  0
  1  2  2  0
  2  3  1  0
  2 18  1  0
  3  4  1  0
  4  5  2  0
  4 17  1  0
  5  6  1  0
  6  7  2  0
  7  8  1  0
  7 16  1  0
  8  9  1  0
  9 10  1  0
 10 11  2  0
 10 15  1  0
 11 12  1  0
 12 13  2  0
 13 14  1  0
 14 15  2  0
 16 17  2  0
 18 19  1  0
 19 20  2  0
 19 24  1  0
 20 21  1  0
 21 22  2  0
 22 23  1  0
 23 24  2  0
M  END
>  <original SMILES>  (382) 
O=C(Nc1ccc(CSc2ccccc2)cc1)Nc1cccnc1

>  <AutoDock Predicted Affinity>  (382) 
-5.953535

>  <ref_pdb>  (382) 
x0434_0

>  <ref_mols>  (382) 
x0434_0

>  <creator>  (382) 
Will Poole

>  <energy minimised>  (382) 
True

$$$$
WPC0920_minimised.pdb
     RDKit          3D

 24 26  0  0  0  0  0  0  0  0999 V2000
    8.5320   -0.0710   19.8690 O   0  0  0  0  0  0  0  0  0  0  0  0
    7.7890   -0.3240   20.7970 C   0  0  0  0  0  0  0  0  0  0  0  0
    8.2020   -0.6950   22.0510 N   0  0  0  0  0  0  0  0  0  0  0  0
    9.5260   -0.5720   22.5250 C   0  0  0  0  0  0  0  0  0  0  0  0
   10.6100   -0.9610   21.7240 C   0  0  0  0  0  0  0  0  0  0  0  0
   11.9190   -0.6120   22.0780 C   0  0  0  0  0  0  0  0  0  0  0  0
   12.1490    0.1000   23.2630 C   0  0  0  0  0  0  0  0  0  0  0  0
   13.5440    0.5920   23.5860 C   0  0  0  0  0  0  0  0  0  0  0  0
   14.0730    2.0140   22.5410 S   0  0  0  0  0  0  0  0  0  0  0  0
   12.9840    3.3640   22.9420 C   0  0  0  0  0  0  0  0  0  0  0  0
   13.5350    4.6170   23.2510 C   0  0  0  0  0  0  0  0  0  0  0  0
   12.6850    5.6680   23.6260 C   0  0  0  0  0  0  0  0  0  0  0  0
   11.3030    5.4270   23.6220 C   0  0  0  0  0  0  0  0  0  0  0  0
   10.8350    4.1540   23.2620 C   0  0  0  0  0  0  0  0  0  0  0  0
   11.6640    3.1410   22.9620 N   0  0  0  0  0  0  0  0  0  0  0  0
   11.0730    0.3870   24.1250 C   0  0  0  0  0  0  0  0  0  0  0  0
    9.7610    0.0620   23.7510 C   0  0  0  0  0  0  0  0  0  0  0  0
    6.4300   -0.2170   20.6900 N   0  0  0  0  0  0  0  0  0  0  0  0
    5.7630    0.3900   19.5990 C   0  0  0  0  0  0  0  0  0  0  0  0
    4.8210    1.3940   19.8520 C   0  0  0  0  0  0  0  0  0  0  0  0
    4.2860    2.0760   18.7520 C   0  0  0  0  0  0  0  0  0  0  0  0
    4.7170    1.7510   17.4570 C   0  0  0  0  0  0  0  0  0  0  0  0
    5.5890    0.7490   17.2020 N   0  0  0  0  0  0  0  0  0  0  0  0
    6.1110    0.1000   18.2620 C   0  0  0  0  0  0  0  0  0  0  0  0
  1  2  2  0
  2  3  1  0
  2 18  1  0
  3  4  1  0
  4  5  2  0
  4 17  1  0
  5  6  1  0
  6  7  2  0
  7  8  1  0
  7 16  1  0
  8  9  1  0
  9 10  1  0
 10 11  2  0
 10 15  1  0
 11 12  1  0
 12 13  2  0
 13 14  1  0
 14 15  2  0
 16 17  2  0
 18 19  1  0
 19 20  2  0
 19 24  1  0
 20 21  1  0
 21 22  2  0
 22 23  1  0
 23 24  2  0
M  END
>  <original SMILES>  (383) 
O=C(Nc1ccc(CSc2ccccn2)cc1)Nc1cccnc1

>  <AutoDock Predicted Affinity>  (383) 
-6.12743

>  <ref_pdb>  (383) 
x0434_0

>  <ref_mols>  (383) 
x0434_0

>  <creator>  (383) 
Will Poole

>  <energy minimised>  (383) 
True

$$$$
WPC0416_minimised.pdb
     RDKit          3D

 24 26  0  0  0  0  0  0  0  0999 V2000
    8.5030    0.1270   19.8900 O   0  0  0  0  0  0  0  0  0  0  0  0
    7.7490   -0.1940   20.7890 C   0  0  0  0  0  0  0  0  0  0  0  0
    8.1490   -0.5380   22.0530 N   0  0  0  0  0  0  0  0  0  0  0  0
    9.4410   -0.2910   22.5560 C   0  0  0  0  0  0  0  0  0  0  0  0
   10.5750   -0.6490   21.8100 C   0  0  0  0  0  0  0  0  0  0  0  0
   11.8390   -0.1740   22.1790 C   0  0  0  0  0  0  0  0  0  0  0  0
   11.9690    0.6490   23.3070 C   0  0  0  0  0  0  0  0  0  0  0  0
   13.3040    1.2760   23.6310 C   0  0  0  0  0  0  0  0  0  0  0  0
   13.5520    2.9340   22.8450 S   0  0  0  0  0  0  0  0  0  0  0  0
   12.2660    4.0320   23.4080 C   0  0  0  0  0  0  0  0  0  0  0  0
   10.9280    3.8660   23.0370 C   0  0  0  0  0  0  0  0  0  0  0  0
    9.9790    4.8200   23.4330 C   0  0  0  0  0  0  0  0  0  0  0  0
   10.2970    5.8940   24.1850 N   0  0  0  0  0  0  0  0  0  0  0  0
   11.5860    6.0620   24.5280 C   0  0  0  0  0  0  0  0  0  0  0  0
   12.5960    5.1700   24.1500 C   0  0  0  0  0  0  0  0  0  0  0  0
   10.8530    0.9020   24.1260 C   0  0  0  0  0  0  0  0  0  0  0  0
    9.5850    0.4430   23.7420 C   0  0  0  0  0  0  0  0  0  0  0  0
    6.3900   -0.1770   20.6470 N   0  0  0  0  0  0  0  0  0  0  0  0
    5.7210    0.4170   19.5520 C   0  0  0  0  0  0  0  0  0  0  0  0
    4.7600    1.4060   19.7970 C   0  0  0  0  0  0  0  0  0  0  0  0
    4.2290    2.0840   18.6930 C   0  0  0  0  0  0  0  0  0  0  0  0
    4.6770    1.7660   17.4030 C   0  0  0  0  0  0  0  0  0  0  0  0
    5.5710    0.7820   17.1540 N   0  0  0  0  0  0  0  0  0  0  0  0
    6.0920    0.1390   18.2180 C   0  0  0  0  0  0  0  0  0  0  0  0
  1  2  2  0
  2  3  1  0
  2 18  1  0
  3  4  1  0
  4  5  2  0
  4 17  1  0
  5  6  1  0
  6  7  2  0
  7  8  1  0
  7 16  1  0
  8  9  1  0
  9 10  1  0
 10 11  2  0
 10 15  1  0
 11 12  1  0
 12 13  2  0
 13 14  1  0
 14 15  2  0
 16 17  2  0
 18 19  1  0
 19 20  2  0
 19 24  1  0
 20 21  1  0
 21 22  2  0
 22 23  1  0
 23 24  2  0
M  END
>  <original SMILES>  (384) 
O=C(Nc1ccc(CSc2ccncc2)cc1)Nc1cccnc1

>  <AutoDock Predicted Affinity>  (384) 
-5.864695

>  <ref_pdb>  (384) 
x0434_0

>  <ref_mols>  (384) 
x0434_0

>  <creator>  (384) 
Will Poole

>  <energy minimised>  (384) 
True

$$$$
WPC0850_minimised.pdb
     RDKit          3D

 23 25  0  0  0  0  0  0  0  0999 V2000
    8.8500    0.3190   20.0070 O   0  0  0  0  0  0  0  0  0  0  0  0
    8.2060   -0.0260   20.9770 C   0  0  0  0  0  0  0  0  0  0  0  0
    8.7610   -0.2620   22.2100 N   0  0  0  0  0  0  0  0  0  0  0  0
   10.0710    0.1490   22.5420 C   0  0  0  0  0  0  0  0  0  0  0  0
   11.1570   -0.2330   21.7400 C   0  0  0  0  0  0  0  0  0  0  0  0
   12.3880    0.4290   21.8570 C   0  0  0  0  0  0  0  0  0  0  0  0
   12.5370    1.4680   22.7890 C   0  0  0  0  0  0  0  0  0  0  0  0
   13.7840    2.3340   22.7590 C   0  0  0  0  0  0  0  0  0  0  0  0
   13.4500    4.0030   22.0440 S   0  0  0  0  0  0  0  0  0  0  0  0
   12.3820    4.7670   23.1980 C   0  0  0  0  0  0  0  0  0  0  0  0
   11.1380    5.1730   22.8230 N   0  0  0  0  0  0  0  0  0  0  0  0
   10.6340    5.8510   23.9110 C   0  0  0  0  0  0  0  0  0  0  0  0
   11.6300    5.8250   24.8640 C   0  0  0  0  0  0  0  0  0  0  0  0
   12.7300    5.1340   24.4080 N   0  0  0  0  0  0  0  0  0  0  0  0
   11.4930    1.7450   23.6920 C   0  0  0  0  0  0  0  0  0  0  0  0
   10.2570    1.0950   23.5610 C   0  0  0  0  0  0  0  0  0  0  0  0
    6.8430   -0.1420   20.9230 N   0  0  0  0  0  0  0  0  0  0  0  0
    6.0750    0.3500   19.8370 C   0  0  0  0  0  0  0  0  0  0  0  0
    5.1180    1.3440   20.0740 C   0  0  0  0  0  0  0  0  0  0  0  0
    4.5140    1.9460   18.9620 C   0  0  0  0  0  0  0  0  0  0  0  0
    4.8880    1.5510   17.6690 C   0  0  0  0  0  0  0  0  0  0  0  0
    5.7710    0.5560   17.4300 N   0  0  0  0  0  0  0  0  0  0  0  0
    6.3650   -0.0110   18.5020 C   0  0  0  0  0  0  0  0  0  0  0  0
  1  2  2  0
  2  3  1  0
  2 17  1  0
  3  4  1  0
  4  5  2  0
  4 16  1  0
  5  6  1  0
  6  7  2  0
  7  8  1  0
  7 15  1  0
  8  9  1  0
  9 10  1  0
 10 11  1  0
 10 14  2  0
 11 12  1  0
 12 13  2  0
 13 14  1  0
 15 16  2  0
 17 18  1  0
 18 19  2  0
 18 23  1  0
 19 20  1  0
 20 21  2  0
 21 22  1  0
 22 23  2  0
M  END
>  <original SMILES>  (385) 
O=C(Nc1ccc(CSc2ncc[nH]2)cc1)Nc1cccnc1

>  <AutoDock Predicted Affinity>  (385) 
-6.598548

>  <ref_pdb>  (385) 
x0434_0

>  <ref_mols>  (385) 
x0434_0

>  <creator>  (385) 
Will Poole

>  <energy minimised>  (385) 
True

$$$$
WPC0809_minimised.pdb
     RDKit          3D

 24 26  0  0  0  0  0  0  0  0999 V2000
    8.5480    0.0510   19.8730 O   0  0  0  0  0  0  0  0  0  0  0  0
    7.8120   -0.2130   20.8030 C   0  0  0  0  0  0  0  0  0  0  0  0
    8.2370   -0.5570   22.0600 N   0  0  0  0  0  0  0  0  0  0  0  0
    9.5610   -0.4040   22.5230 C   0  0  0  0  0  0  0  0  0  0  0  0
   10.6480   -0.7960   21.7260 C   0  0  0  0  0  0  0  0  0  0  0  0
   11.9540   -0.4320   22.0740 C   0  0  0  0  0  0  0  0  0  0  0  0
   12.1780    0.3020   23.2470 C   0  0  0  0  0  0  0  0  0  0  0  0
   13.5710    0.7990   23.5690 C   0  0  0  0  0  0  0  0  0  0  0  0
   14.0360    2.3170   22.6290 S   0  0  0  0  0  0  0  0  0  0  0  0
   12.8560    3.5730   23.0770 C   0  0  0  0  0  0  0  0  0  0  0  0
   13.3310    4.6730   23.6800 N   0  0  0  0  0  0  0  0  0  0  0  0
   12.4450    5.6260   23.9950 C   0  0  0  0  0  0  0  0  0  0  0  0
   11.0860    5.4760   23.7290 C   0  0  0  0  0  0  0  0  0  0  0  0
   10.6870    4.2950   23.1060 C   0  0  0  0  0  0  0  0  0  0  0  0
   11.5740    3.3460   22.7920 N   0  0  0  0  0  0  0  0  0  0  0  0
   11.1010    0.6010   24.1030 C   0  0  0  0  0  0  0  0  0  0  0  0
    9.7920    0.2570   23.7360 C   0  0  0  0  0  0  0  0  0  0  0  0
    6.4510   -0.1420   20.6930 N   0  0  0  0  0  0  0  0  0  0  0  0
    5.7740    0.4400   19.5950 C   0  0  0  0  0  0  0  0  0  0  0  0
    4.8210    1.4370   19.8370 C   0  0  0  0  0  0  0  0  0  0  0  0
    4.2810    2.1020   18.7290 C   0  0  0  0  0  0  0  0  0  0  0  0
    4.7150    1.7660   17.4390 C   0  0  0  0  0  0  0  0  0  0  0  0
    5.5960    0.7710   17.1940 N   0  0  0  0  0  0  0  0  0  0  0  0
    6.1240    0.1380   18.2610 C   0  0  0  0  0  0  0  0  0  0  0  0
  1  2  2  0
  2  3  1  0
  2 18  1  0
  3  4  1  0
  4  5  2  0
  4 17  1  0
  5  6  1  0
  6  7  2  0
  7  8  1  0
  7 16  1  0
  8  9  1  0
  9 10  1  0
 10 11  2  0
 10 15  1  0
 11 12  1  0
 12 13  2  0
 13 14  1  0
 14 15  2  0
 16 17  2  0
 18 19  1  0
 19 20  2  0
 19 24  1  0
 20 21  1  0
 21 22  2  0
 22 23  1  0
 23 24  2  0
M  END
>  <original SMILES>  (386) 
O=C(Nc1ccc(CSc2ncccn2)cc1)Nc1cccnc1

>  <AutoDock Predicted Affinity>  (386) 
-6.103845

>  <ref_pdb>  (386) 
x0434_0

>  <ref_mols>  (386) 
x0434_0

>  <creator>  (386) 
Will Poole

>  <energy minimised>  (386) 
True

$$$$
WPC1005_minimised.pdb
     RDKit          3D

 23 25  0  0  0  0  0  0  0  0999 V2000
    8.9100    0.3070   20.0700 O   0  0  0  0  0  0  0  0  0  0  0  0
    8.2710   -0.0500   21.0400 C   0  0  0  0  0  0  0  0  0  0  0  0
    8.8340   -0.2750   22.2720 N   0  0  0  0  0  0  0  0  0  0  0  0
   10.1320    0.1760   22.6010 C   0  0  0  0  0  0  0  0  0  0  0  0
   11.2280   -0.1790   21.7980 C   0  0  0  0  0  0  0  0  0  0  0  0
   12.4270    0.5420   21.8860 C   0  0  0  0  0  0  0  0  0  0  0  0
   12.5350    1.6160   22.7860 C   0  0  0  0  0  0  0  0  0  0  0  0
   13.7000    2.5850   22.6610 C   0  0  0  0  0  0  0  0  0  0  0  0
   13.1460    4.1560   21.8710 S   0  0  0  0  0  0  0  0  0  0  0  0
   12.2220    4.9270   23.1400 C   0  0  0  0  0  0  0  0  0  0  0  0
   10.9570    5.3820   22.9380 N   0  0  0  0  0  0  0  0  0  0  0  0
   10.5600    6.0170   24.0740 N   0  0  0  0  0  0  0  0  0  0  0  0
   11.6140    5.8890   24.8760 C   0  0  0  0  0  0  0  0  0  0  0  0
   12.6730    5.1930   24.3380 N   0  0  0  0  0  0  0  0  0  0  0  0
   11.4920    1.8600   23.6990 C   0  0  0  0  0  0  0  0  0  0  0  0
   10.2870    1.1470   23.6000 C   0  0  0  0  0  0  0  0  0  0  0  0
    6.9100   -0.1870   20.9820 N   0  0  0  0  0  0  0  0  0  0  0  0
    6.1370    0.2930   19.8920 C   0  0  0  0  0  0  0  0  0  0  0  0
    5.1700    1.2790   20.1260 C   0  0  0  0  0  0  0  0  0  0  0  0
    4.5540    1.8680   19.0140 C   0  0  0  0  0  0  0  0  0  0  0  0
    4.9230    1.4650   17.7220 C   0  0  0  0  0  0  0  0  0  0  0  0
    5.8170    0.4790   17.4860 N   0  0  0  0  0  0  0  0  0  0  0  0
    6.4240   -0.0730   18.5580 C   0  0  0  0  0  0  0  0  0  0  0  0
  1  2  2  0
  2  3  1  0
  2 17  1  0
  3  4  1  0
  4  5  2  0
  4 16  1  0
  5  6  1  0
  6  7  2  0
  7  8  1  0
  7 15  1  0
  8  9  1  0
  9 10  1  0
 10 11  1  0
 10 14  2  0
 11 12  1  0
 12 13  2  0
 13 14  1  0
 15 16  2  0
 17 18  1  0
 18 19  2  0
 18 23  1  0
 19 20  1  0
 20 21  2  0
 21 22  1  0
 22 23  2  0
M  END
>  <original SMILES>  (387) 
O=C(Nc1ccc(CSc2ncn[nH]2)cc1)Nc1cccnc1

>  <AutoDock Predicted Affinity>  (387) 
-6.64611

>  <ref_pdb>  (387) 
x0434_0

>  <ref_mols>  (387) 
x0434_0

>  <creator>  (387) 
Will Poole

>  <energy minimised>  (387) 
True

$$$$
WPC0537_minimised.pdb
     RDKit          3D

 23 25  0  0  0  0  0  0  0  0999 V2000
    8.3050   -0.0320   19.9190 O   0  0  0  0  0  0  0  0  0  0  0  0
    7.4950   -0.2090   20.8080 C   0  0  0  0  0  0  0  0  0  0  0  0
    7.8120   -0.5530   22.0940 N   0  0  0  0  0  0  0  0  0  0  0  0
    9.1130   -0.4580   22.6220 C   0  0  0  0  0  0  0  0  0  0  0  0
   10.1850   -1.1090   21.9940 C   0  0  0  0  0  0  0  0  0  0  0  0
   11.5010   -0.8150   22.3740 C   0  0  0  0  0  0  0  0  0  0  0  0
   11.7450    0.1430   23.3720 C   0  0  0  0  0  0  0  0  0  0  0  0
   13.1590    0.6360   23.6300 C   0  0  0  0  0  0  0  0  0  0  0  0
   13.3640    2.0590   23.1930 C   0  0  0  0  0  0  0  0  0  0  0  0
   14.3360    2.5520   22.5100 N   0  0  0  0  0  0  0  0  0  0  0  0
   14.1350    3.8990   22.5230 N   0  0  0  0  0  0  0  0  0  0  0  0
   13.0090    4.2370   23.2380 C   0  0  0  0  0  0  0  0  0  0  0  0
   12.5830    5.7440   23.8040 S   0  0  0  0  0  0  0  0  0  0  0  0
   12.5480    3.0370   23.6680 O   0  0  0  0  0  0  0  0  0  0  0  0
   10.6650    0.7060   24.0770 C   0  0  0  0  0  0  0  0  0  0  0  0
    9.3490    0.4080   23.6980 C   0  0  0  0  0  0  0  0  0  0  0  0
    6.1530   -0.0260   20.6320 N   0  0  0  0  0  0  0  0  0  0  0  0
    5.5580    0.5850   19.5040 C   0  0  0  0  0  0  0  0  0  0  0  0
    4.6070    1.5930   19.7040 C   0  0  0  0  0  0  0  0  0  0  0  0
    4.1200    2.2620   18.5740 C   0  0  0  0  0  0  0  0  0  0  0  0
    4.6020    1.9160   17.3040 C   0  0  0  0  0  0  0  0  0  0  0  0
    5.4870    0.9130   17.0980 N   0  0  0  0  0  0  0  0  0  0  0  0
    5.9640    0.2780   18.1870 C   0  0  0  0  0  0  0  0  0  0  0  0
  1  2  2  0
  2  3  1  0
  2 17  1  0
  3  4  1  0
  4  5  2  0
  4 16  1  0
  5  6  1  0
  6  7  2  0
  7  8  1  0
  7 15  1  0
  8  9  1  0
  9 10  2  0
  9 14  1  0
 10 11  1  0
 11 12  1  0
 12 13  2  0
 12 14  1  0
 15 16  2  0
 17 18  1  0
 18 19  2  0
 18 23  1  0
 19 20  1  0
 20 21  2  0
 21 22  1  0
 22 23  2  0
M  END
>  <original SMILES>  (388) 
O=C(Nc1ccc(Cc2n[nH]c(=S)o2)cc1)Nc1cccnc1

>  <AutoDock Predicted Affinity>  (388) 
-6.95275

>  <ref_pdb>  (388) 
x0434_0

>  <ref_mols>  (388) 
x0434_0

>  <creator>  (388) 
Will Poole

>  <energy minimised>  (388) 
True

$$$$
WPC0959_minimised.pdb
     RDKit          3D

 22 24  0  0  0  0  0  0  0  0999 V2000
    8.5080   -0.0950   19.7690 O   0  0  0  0  0  0  0  0  0  0  0  0
    7.7510   -0.3370   20.6900 C   0  0  0  0  0  0  0  0  0  0  0  0
    8.1450   -0.6350   21.9650 N   0  0  0  0  0  0  0  0  0  0  0  0
    9.4130   -0.2940   22.4710 C   0  0  0  0  0  0  0  0  0  0  0  0
   10.5830   -0.6910   21.8070 C   0  0  0  0  0  0  0  0  0  0  0  0
   11.8180   -0.1300   22.1630 C   0  0  0  0  0  0  0  0  0  0  0  0
   11.8780    0.8290   23.1880 C   0  0  0  0  0  0  0  0  0  0  0  0
   13.1750    1.5460   23.5050 C   0  0  0  0  0  0  0  0  0  0  0  0
   13.1280    3.0430   23.2830 C   0  0  0  0  0  0  0  0  0  0  0  0
   14.0280    3.7530   22.5260 N   0  0  0  0  0  0  0  0  0  0  0  0
   13.7180    5.0890   22.6550 C   0  0  0  0  0  0  0  0  0  0  0  0
   12.6590    5.1360   23.5230 C   0  0  0  0  0  0  0  0  0  0  0  0
   12.3340    3.8700   23.9390 N   0  0  0  0  0  0  0  0  0  0  0  0
   10.7190    1.1430   23.9200 C   0  0  0  0  0  0  0  0  0  0  0  0
    9.4850    0.5880   23.5560 C   0  0  0  0  0  0  0  0  0  0  0  0
    6.3940   -0.2510   20.5640 N   0  0  0  0  0  0  0  0  0  0  0  0
    5.7380    0.3880   19.4870 C   0  0  0  0  0  0  0  0  0  0  0  0
    4.8060    1.3960   19.7620 C   0  0  0  0  0  0  0  0  0  0  0  0
    4.2740    2.1040   18.6770 C   0  0  0  0  0  0  0  0  0  0  0  0
    4.7030    1.8050   17.3770 C   0  0  0  0  0  0  0  0  0  0  0  0
    5.5760    0.8100   17.1010 N   0  0  0  0  0  0  0  0  0  0  0  0
    6.0890    0.1290   18.1450 C   0  0  0  0  0  0  0  0  0  0  0  0
  1  2  2  0
  2  3  1  0
  2 16  1  0
  3  4  1  0
  4  5  2  0
  4 15  1  0
  5  6  1  0
  6  7  2  0
  7  8  1  0
  7 14  1  0
  8  9  1  0
  9 10  1  0
  9 13  2  0
 10 11  1  0
 11 12  2  0
 12 13  1  0
 14 15  2  0
 16 17  1  0
 17 18  2  0
 17 22  1  0
 18 19  1  0
 19 20  2  0
 20 21  1  0
 21 22  2  0
M  END
>  <original SMILES>  (389) 
O=C(Nc1ccc(Cc2ncc[nH]2)cc1)Nc1cccnc1

>  <AutoDock Predicted Affinity>  (389) 
-6.385525

>  <ref_pdb>  (389) 
x0434_0

>  <ref_mols>  (389) 
x0434_0

>  <creator>  (389) 
Will Poole

>  <energy minimised>  (389) 
True

$$$$
WPC0902_minimised.pdb
     RDKit          3D

 17 18  0  0  0  0  0  0  0  0999 V2000
    8.5520    0.2080   19.8370 O   0  0  0  0  0  0  0  0  0  0  0  0
    7.8600    0.1040   20.8300 C   0  0  0  0  0  0  0  0  0  0  0  0
    8.3720   -0.0520   22.0870 N   0  0  0  0  0  0  0  0  0  0  0  0
    9.7480    0.0280   22.3730 C   0  0  0  0  0  0  0  0  0  0  0  0
   10.6250   -0.9390   21.8570 C   0  0  0  0  0  0  0  0  0  0  0  0
   12.0090   -0.7950   22.0320 C   0  0  0  0  0  0  0  0  0  0  0  0
   12.5100    0.3180   22.7240 C   0  0  0  0  0  0  0  0  0  0  0  0
   14.2320    0.5110   22.9170 Cl  0  0  0  0  0  0  0  0  0  0  0  0
   11.6360    1.2800   23.2520 C   0  0  0  0  0  0  0  0  0  0  0  0
   10.2500    1.1330   23.0780 C   0  0  0  0  0  0  0  0  0  0  0  0
    6.4960    0.1830   20.7850 N   0  0  0  0  0  0  0  0  0  0  0  0
    5.7650    0.6510   19.6660 C   0  0  0  0  0  0  0  0  0  0  0  0
    4.7930    1.6380   19.8640 C   0  0  0  0  0  0  0  0  0  0  0  0
    4.2100    2.2140   18.7290 C   0  0  0  0  0  0  0  0  0  0  0  0
    4.6260    1.8060   17.4540 C   0  0  0  0  0  0  0  0  0  0  0  0
    5.5180    0.8110   17.2510 N   0  0  0  0  0  0  0  0  0  0  0  0
    6.0800    0.2580   18.3450 C   0  0  0  0  0  0  0  0  0  0  0  0
  1  2  2  0
  2  3  1  0
  2 11  1  0
  3  4  1  0
  4  5  2  0
  4 10  1  0
  5  6  1  0
  6  7  2  0
  7  8  1  0
  7  9  1  0
  9 10  2  0
 11 12  1  0
 12 13  2  0
 12 17  1  0
 13 14  1  0
 14 15  2  0
 15 16  1  0
 16 17  2  0
M  END
>  <original SMILES>  (390) 
O=C(Nc1ccc(Cl)cc1)Nc1cccnc1

>  <AutoDock Predicted Affinity>  (390) 
-5.58221

>  <ref_pdb>  (390) 
x0434_0

>  <ref_mols>  (390) 
x0434_0

>  <creator>  (390) 
Will Poole

>  <energy minimised>  (390) 
True

$$$$
WPC0372_minimised.pdb
     RDKit          3D

 24 26  0  0  0  0  0  0  0  0999 V2000
    8.3380    0.1240   19.9160 O   0  0  0  0  0  0  0  0  0  0  0  0
    7.5150   -0.1100   20.7830 C   0  0  0  0  0  0  0  0  0  0  0  0
    7.8180   -0.5230   22.0520 N   0  0  0  0  0  0  0  0  0  0  0  0
    9.1240   -0.5170   22.5750 C   0  0  0  0  0  0  0  0  0  0  0  0
   10.1640   -1.1180   21.8530 C   0  0  0  0  0  0  0  0  0  0  0  0
   11.4960   -0.8690   22.2010 C   0  0  0  0  0  0  0  0  0  0  0  0
   11.7840   -0.0310   23.2890 C   0  0  0  0  0  0  0  0  0  0  0  0
   13.2140    0.4110   23.5310 C   0  0  0  0  0  0  0  0  0  0  0  0
   13.4850    1.7690   23.0620 N   0  0  0  0  0  0  0  0  0  0  0  0
   12.6130    2.8160   22.8550 C   0  0  0  0  0  0  0  0  0  0  0  0
   13.4440    3.8630   22.5890 C   0  0  0  0  0  0  0  0  0  0  0  0
   12.9880    5.2760   22.3770 C   0  0  0  0  0  0  0  0  0  0  0  0
   13.7940    5.9700   21.5410 F   0  0  0  0  0  0  0  0  0  0  0  0
   14.7420    3.4460   22.6170 N   0  0  0  0  0  0  0  0  0  0  0  0
   14.7650    2.1670   22.8560 N   0  0  0  0  0  0  0  0  0  0  0  0
   10.7400    0.4600   24.0960 C   0  0  0  0  0  0  0  0  0  0  0  0
    9.4060    0.2290   23.7280 C   0  0  0  0  0  0  0  0  0  0  0  0
    6.1740    0.0570   20.5920 N   0  0  0  0  0  0  0  0  0  0  0  0
    5.5800    0.6600   19.4600 C   0  0  0  0  0  0  0  0  0  0  0  0
    4.6070    1.6480   19.6500 C   0  0  0  0  0  0  0  0  0  0  0  0
    4.1220    2.3080   18.5140 C   0  0  0  0  0  0  0  0  0  0  0  0
    4.6300    1.9780   17.2500 C   0  0  0  0  0  0  0  0  0  0  0  0
    5.5340    0.9910   17.0530 N   0  0  0  0  0  0  0  0  0  0  0  0
    6.0080    0.3620   18.1470 C   0  0  0  0  0  0  0  0  0  0  0  0
  1  2  2  0
  2  3  1  0
  2 18  1  0
  3  4  1  0
  4  5  2  0
  4 17  1  0
  5  6  1  0
  6  7  2  0
  7  8  1  0
  7 16  1  0
  8  9  1  0
  9 10  1  0
  9 15  1  0
 10 11  2  0
 11 12  1  0
 11 14  1  0
 12 13  1  0
 14 15  2  0
 16 17  2  0
 18 19  1  0
 19 20  2  0
 19 24  1  0
 20 21  1  0
 21 22  2  0
 22 23  1  0
 23 24  2  0
M  END
>  <original SMILES>  (391) 
O=C(Nc1ccc(Cn2cc(CF)nn2)cc1)Nc1cccnc1

>  <AutoDock Predicted Affinity>  (391) 
-7.10993

>  <ref_pdb>  (391) 
x0434_0

>  <ref_mols>  (391) 
x0434_0

>  <creator>  (391) 
Will Poole

>  <energy minimised>  (391) 
True

$$$$
WPC0989_minimised.pdb
     RDKit          3D

 24 26  0  0  0  0  0  0  0  0999 V2000
    8.4450    0.1230   19.9500 O   0  0  0  0  0  0  0  0  0  0  0  0
    7.6400   -0.1030   20.8340 C   0  0  0  0  0  0  0  0  0  0  0  0
    7.9690   -0.4880   22.1060 N   0  0  0  0  0  0  0  0  0  0  0  0
    9.2850   -0.4600   22.6050 C   0  0  0  0  0  0  0  0  0  0  0  0
   10.3160   -1.0750   21.8820 C   0  0  0  0  0  0  0  0  0  0  0  0
   11.6520   -0.8140   22.2030 C   0  0  0  0  0  0  0  0  0  0  0  0
   11.9560    0.0540   23.2650 C   0  0  0  0  0  0  0  0  0  0  0  0
   13.3900    0.4990   23.4810 C   0  0  0  0  0  0  0  0  0  0  0  0
   13.6420    1.8780   23.0550 N   0  0  0  0  0  0  0  0  0  0  0  0
   12.7510    2.9090   22.8540 C   0  0  0  0  0  0  0  0  0  0  0  0
   13.5610    3.9870   22.6600 C   0  0  0  0  0  0  0  0  0  0  0  0
   13.0550    5.3840   22.4520 C   0  0  0  0  0  0  0  0  0  0  0  0
   14.0900    6.3480   22.2100 O   0  0  0  0  0  0  0  0  0  0  0  0
   14.8690    3.6060   22.7140 N   0  0  0  0  0  0  0  0  0  0  0  0
   14.9160    2.3180   22.9040 N   0  0  0  0  0  0  0  0  0  0  0  0
   10.9200    0.5590   24.0750 C   0  0  0  0  0  0  0  0  0  0  0  0
    9.5820    0.3130   23.7340 C   0  0  0  0  0  0  0  0  0  0  0  0
    6.2950    0.0470   20.6600 N   0  0  0  0  0  0  0  0  0  0  0  0
    5.6810    0.6310   19.5290 C   0  0  0  0  0  0  0  0  0  0  0  0
    4.7130    1.6240   19.7190 C   0  0  0  0  0  0  0  0  0  0  0  0
    4.2090    2.2660   18.5820 C   0  0  0  0  0  0  0  0  0  0  0  0
    4.6920    1.9130   17.3140 C   0  0  0  0  0  0  0  0  0  0  0  0
    5.5910    0.9210   17.1180 N   0  0  0  0  0  0  0  0  0  0  0  0
    6.0840    0.3110   18.2140 C   0  0  0  0  0  0  0  0  0  0  0  0
  1  2  2  0
  2  3  1  0
  2 18  1  0
  3  4  1  0
  4  5  2  0
  4 17  1  0
  5  6  1  0
  6  7  2  0
  7  8  1  0
  7 16  1  0
  8  9  1  0
  9 10  1  0
  9 15  1  0
 10 11  2  0
 11 12  1  0
 11 14  1  0
 12 13  1  0
 14 15  2  0
 16 17  2  0
 18 19  1  0
 19 20  2  0
 19 24  1  0
 20 21  1  0
 21 22  2  0
 22 23  1  0
 23 24  2  0
M  END
>  <original SMILES>  (392) 
O=C(Nc1ccc(Cn2cc(CO)nn2)cc1)Nc1cccnc1

>  <AutoDock Predicted Affinity>  (392) 
-6.922063

>  <ref_pdb>  (392) 
x0434_0

>  <ref_mols>  (392) 
x0434_0

>  <creator>  (392) 
Will Poole

>  <energy minimised>  (392) 
True

$$$$
WPC0521_minimised.pdb
     RDKit          3D

 17 18  0  0  0  0  0  0  0  0999 V2000
    8.7500    0.1670   19.8920 O   0  0  0  0  0  0  0  0  0  0  0  0
    8.1050    0.0770   20.9160 C   0  0  0  0  0  0  0  0  0  0  0  0
    8.6800   -0.0410   22.1520 N   0  0  0  0  0  0  0  0  0  0  0  0
   10.0720    0.0420   22.3840 C   0  0  0  0  0  0  0  0  0  0  0  0
   10.9340   -0.9320   21.8510 C   0  0  0  0  0  0  0  0  0  0  0  0
   12.3240   -0.8070   22.0130 C   0  0  0  0  0  0  0  0  0  0  0  0
   12.8490    0.2920   22.7080 C   0  0  0  0  0  0  0  0  0  0  0  0
   14.1830    0.4020   22.8750 F   0  0  0  0  0  0  0  0  0  0  0  0
   11.9920    1.2660   23.2400 C   0  0  0  0  0  0  0  0  0  0  0  0
   10.6010    1.1410   23.0800 C   0  0  0  0  0  0  0  0  0  0  0  0
    6.7370    0.1360   20.9140 N   0  0  0  0  0  0  0  0  0  0  0  0
    5.9660    0.5690   19.8040 C   0  0  0  0  0  0  0  0  0  0  0  0
    4.9960    1.5590   20.0050 C   0  0  0  0  0  0  0  0  0  0  0  0
    4.3730    2.1000   18.8740 C   0  0  0  0  0  0  0  0  0  0  0  0
    4.7470    1.6590   17.5960 C   0  0  0  0  0  0  0  0  0  0  0  0
    5.6350    0.6590   17.3930 N   0  0  0  0  0  0  0  0  0  0  0  0
    6.2360    0.1400   18.4840 C   0  0  0  0  0  0  0  0  0  0  0  0
  1  2  2  0
  2  3  1  0
  2 11  1  0
  3  4  1  0
  4  5  2  0
  4 10  1  0
  5  6  1  0
  6  7  2  0
  7  8  1  0
  7  9  1  0
  9 10  2  0
 11 12  1  0
 12 13  2  0
 12 17  1  0
 13 14  1  0
 14 15  2  0
 15 16  1  0
 16 17  2  0
M  END
>  <original SMILES>  (393) 
O=C(Nc1ccc(F)cc1)Nc1cccnc1

>  <AutoDock Predicted Affinity>  (393) 
-5.77766

>  <ref_pdb>  (393) 
x0434_0

>  <ref_mols>  (393) 
x0434_0

>  <creator>  (393) 
Will Poole

>  <energy minimised>  (393) 
True

$$$$
WPC0909_minimised.pdb
     RDKit          3D

 17 18  0  0  0  0  0  0  0  0999 V2000
    8.3090    0.2090   19.8180 O   0  0  0  0  0  0  0  0  0  0  0  0
    7.5460    0.0420   20.7510 C   0  0  0  0  0  0  0  0  0  0  0  0
    7.9570   -0.2250   22.0260 N   0  0  0  0  0  0  0  0  0  0  0  0
    9.3080   -0.1700   22.4040 C   0  0  0  0  0  0  0  0  0  0  0  0
   10.2210   -1.0630   21.8230 C   0  0  0  0  0  0  0  0  0  0  0  0
   11.5960   -0.8760   22.0120 C   0  0  0  0  0  0  0  0  0  0  0  0
   12.0440    0.2030   22.7850 C   0  0  0  0  0  0  0  0  0  0  0  0
   14.1210    0.5660   22.9340 I   0  0  0  0  0  0  0  0  0  0  0  0
   11.1350    1.0690   23.4090 C   0  0  0  0  0  0  0  0  0  0  0  0
    9.7580    0.8790   23.2200 C   0  0  0  0  0  0  0  0  0  0  0  0
    6.1900    0.1500   20.6280 N   0  0  0  0  0  0  0  0  0  0  0  0
    5.5330    0.6940   19.5010 C   0  0  0  0  0  0  0  0  0  0  0  0
    4.5630    1.6850   19.6980 C   0  0  0  0  0  0  0  0  0  0  0  0
    4.0480    2.3210   18.5620 C   0  0  0  0  0  0  0  0  0  0  0  0
    4.5270    1.9690   17.2930 C   0  0  0  0  0  0  0  0  0  0  0  0
    5.4230    0.9760   17.0910 N   0  0  0  0  0  0  0  0  0  0  0  0
    5.9190    0.3640   18.1840 C   0  0  0  0  0  0  0  0  0  0  0  0
  1  2  2  0
  2  3  1  0
  2 11  1  0
  3  4  1  0
  4  5  2  0
  4 10  1  0
  5  6  1  0
  6  7  2  0
  7  8  1  0
  7  9  1  0
  9 10  2  0
 11 12  1  0
 12 13  2  0
 12 17  1  0
 13 14  1  0
 14 15  2  0
 15 16  1  0
 16 17  2  0
M  END
>  <original SMILES>  (394) 
O=C(Nc1ccc(I)cc1)Nc1cccnc1

>  <AutoDock Predicted Affinity>  (394) 
-4.28772

>  <ref_pdb>  (394) 
x0434_0

>  <ref_mols>  (394) 
x0434_0

>  <creator>  (394) 
Will Poole

>  <energy minimised>  (394) 
True

$$$$
WPC0400_minimised.pdb
     RDKit          3D

 17 18  0  0  0  0  0  0  0  0999 V2000
    8.8140    0.2180   19.8990 O   0  0  0  0  0  0  0  0  0  0  0  0
    8.1900    0.0920   20.9310 C   0  0  0  0  0  0  0  0  0  0  0  0
    8.7930   -0.0330   22.1530 N   0  0  0  0  0  0  0  0  0  0  0  0
   10.1880    0.0950   22.3500 C   0  0  0  0  0  0  0  0  0  0  0  0
   11.0450   -0.9770   22.0510 C   0  0  0  0  0  0  0  0  0  0  0  0
   12.4370   -0.8110   22.1550 C   0  0  0  0  0  0  0  0  0  0  0  0
   12.9700    0.4220   22.5560 C   0  0  0  0  0  0  0  0  0  0  0  0
   14.3170    0.5830   22.6190 O   0  0  0  0  0  0  0  0  0  0  0  0
   12.1160    1.4920   22.8600 C   0  0  0  0  0  0  0  0  0  0  0  0
   10.7230    1.3300   22.7540 C   0  0  0  0  0  0  0  0  0  0  0  0
    6.8200    0.1190   20.9470 N   0  0  0  0  0  0  0  0  0  0  0  0
    6.0310    0.5430   19.8450 C   0  0  0  0  0  0  0  0  0  0  0  0
    5.0620    1.5330   20.0500 C   0  0  0  0  0  0  0  0  0  0  0  0
    4.4270    2.0680   18.9210 C   0  0  0  0  0  0  0  0  0  0  0  0
    4.7890    1.6190   17.6430 C   0  0  0  0  0  0  0  0  0  0  0  0
    5.6760    0.6200   17.4370 N   0  0  0  0  0  0  0  0  0  0  0  0
    6.2890    0.1070   18.5250 C   0  0  0  0  0  0  0  0  0  0  0  0
  1  2  2  0
  2  3  1  0
  2 11  1  0
  3  4  1  0
  4  5  2  0
  4 10  1  0
  5  6  1  0
  6  7  2  0
  7  8  1  0
  7  9  1  0
  9 10  2  0
 11 12  1  0
 12 13  2  0
 12 17  1  0
 13 14  1  0
 14 15  2  0
 15 16  1  0
 16 17  2  0
M  END
>  <original SMILES>  (395) 
O=C(Nc1ccc(O)cc1)Nc1cccnc1

>  <AutoDock Predicted Affinity>  (395) 
-5.43824

>  <ref_pdb>  (395) 
x0434_0

>  <ref_mols>  (395) 
x0434_0

>  <creator>  (395) 
Will Poole

>  <energy minimised>  (395) 
True

$$$$
WPC0979_minimised.pdb
     RDKit          3D

 17 18  0  0  0  0  0  0  0  0999 V2000
    8.5330    0.2230   19.8400 O   0  0  0  0  0  0  0  0  0  0  0  0
    7.8380    0.1070   20.8290 C   0  0  0  0  0  0  0  0  0  0  0  0
    8.3450   -0.0550   22.0880 N   0  0  0  0  0  0  0  0  0  0  0  0
    9.7210    0.0280   22.3810 C   0  0  0  0  0  0  0  0  0  0  0  0
   10.6100   -0.9070   21.8290 C   0  0  0  0  0  0  0  0  0  0  0  0
   11.9920   -0.7490   22.0050 C   0  0  0  0  0  0  0  0  0  0  0  0
   12.4890    0.3410   22.7340 C   0  0  0  0  0  0  0  0  0  0  0  0
   14.2370    0.5500   22.9210 S   0  0  0  0  0  0  0  0  0  0  0  0
   11.5970    1.2630   23.3060 C   0  0  0  0  0  0  0  0  0  0  0  0
   10.2130    1.1070   23.1310 C   0  0  0  0  0  0  0  0  0  0  0  0
    6.4730    0.1770   20.7760 N   0  0  0  0  0  0  0  0  0  0  0  0
    5.7470    0.6520   19.6570 C   0  0  0  0  0  0  0  0  0  0  0  0
    4.7780    1.6440   19.8530 C   0  0  0  0  0  0  0  0  0  0  0  0
    4.2010    2.2240   18.7170 C   0  0  0  0  0  0  0  0  0  0  0  0
    4.6190    1.8160   17.4420 C   0  0  0  0  0  0  0  0  0  0  0  0
    5.5090    0.8170   17.2420 N   0  0  0  0  0  0  0  0  0  0  0  0
    6.0650    0.2600   18.3360 C   0  0  0  0  0  0  0  0  0  0  0  0
  1  2  2  0
  2  3  1  0
  2 11  1  0
  3  4  1  0
  4  5  2  0
  4 10  1  0
  5  6  1  0
  6  7  2  0
  7  8  1  0
  7  9  1  0
  9 10  2  0
 11 12  1  0
 12 13  2  0
 12 17  1  0
 13 14  1  0
 14 15  2  0
 15 16  1  0
 16 17  2  0
M  END
>  <original SMILES>  (396) 
O=C(Nc1ccc(S)cc1)Nc1cccnc1

>  <AutoDock Predicted Affinity>  (396) 
-4.63233

>  <ref_pdb>  (396) 
x0434_0

>  <ref_mols>  (396) 
x0434_0

>  <creator>  (396) 
Will Poole

>  <energy minimised>  (396) 
True

$$$$
WPC0916_minimised.pdb
     RDKit          3D

 23 24  0  0  0  0  0  0  0  0999 V2000
    8.5250    0.1910   19.9030 O   0  0  0  0  0  0  0  0  0  0  0  0
    7.7710    0.0570   20.8470 C   0  0  0  0  0  0  0  0  0  0  0  0
    8.1760   -0.1770   22.1330 N   0  0  0  0  0  0  0  0  0  0  0  0
    9.5130   -0.1120   22.5770 C   0  0  0  0  0  0  0  0  0  0  0  0
   10.5280   -0.8020   21.8930 C   0  0  0  0  0  0  0  0  0  0  0  0
   11.8700   -0.6280   22.2610 C   0  0  0  0  0  0  0  0  0  0  0  0
   12.1950    0.2360   23.3160 C   0  0  0  0  0  0  0  0  0  0  0  0
   13.8980    0.5090   23.7350 S   0  0  0  0  0  0  0  0  0  0  0  0
   14.4020    1.9070   22.6670 C   0  0  0  0  0  0  0  0  0  0  0  0
   13.4470    3.1080   22.7960 C   0  0  0  0  0  0  0  0  0  0  0  0
   14.2050    4.4360   22.6150 C   0  0  0  0  0  0  0  0  0  0  0  0
   13.2860    5.6590   22.7540 C   0  0  0  0  0  0  0  0  0  0  0  0
   12.8690    5.9910   24.2070 C   0  0  0  0  0  0  0  0  0  0  0  0
   11.4680    5.8240   24.4010 O   0  0  0  0  0  0  0  0  0  0  0  0
   11.1780    0.8790   24.0400 C   0  0  0  0  0  0  0  0  0  0  0  0
    9.8370    0.7080   23.6680 C   0  0  0  0  0  0  0  0  0  0  0  0
    6.4130    0.1660   20.7290 N   0  0  0  0  0  0  0  0  0  0  0  0
    5.7380    0.6690   19.5920 C   0  0  0  0  0  0  0  0  0  0  0  0
    4.7630    1.6570   19.7740 C   0  0  0  0  0  0  0  0  0  0  0  0
    4.2060    2.2400   18.6300 C   0  0  0  0  0  0  0  0  0  0  0  0
    4.6460    1.8340   17.3620 C   0  0  0  0  0  0  0  0  0  0  0  0
    5.5440    0.8400   17.1750 N   0  0  0  0  0  0  0  0  0  0  0  0
    6.0900    0.2880   18.2780 C   0  0  0  0  0  0  0  0  0  0  0  0
  1  2  2  0
  2  3  1  0
  2 17  1  0
  3  4  1  0
  4  5  2  0
  4 16  1  0
  5  6  1  0
  6  7  2  0
  7  8  1  0
  7 15  1  0
  8  9  1  0
  9 10  1  0
 10 11  1  0
 11 12  1  0
 12 13  1  0
 13 14  1  0
 15 16  2  0
 17 18  1  0
 18 19  2  0
 18 23  1  0
 19 20  1  0
 20 21  2  0
 21 22  1  0
 22 23  2  0
M  END
>  <original SMILES>  (397) 
O=C(Nc1ccc(SCCCCCO)cc1)Nc1cccnc1

>  <AutoDock Predicted Affinity>  (397) 
-5.21225

>  <ref_pdb>  (397) 
x0434_0

>  <ref_mols>  (397) 
x0434_0

>  <creator>  (397) 
Will Poole

>  <energy minimised>  (397) 
True

$$$$
WPC0794_minimised.pdb
     RDKit          3D

 22 23  0  0  0  0  0  0  0  0999 V2000
    8.5920    0.2050   19.9240 O   0  0  0  0  0  0  0  0  0  0  0  0
    7.8490   -0.0750   20.8460 C   0  0  0  0  0  0  0  0  0  0  0  0
    8.2750   -0.4180   22.1020 N   0  0  0  0  0  0  0  0  0  0  0  0
    9.6120   -0.3070   22.5430 C   0  0  0  0  0  0  0  0  0  0  0  0
   10.6620   -0.7800   21.7400 C   0  0  0  0  0  0  0  0  0  0  0  0
   11.9910   -0.4730   22.0570 C   0  0  0  0  0  0  0  0  0  0  0  0
   12.2690    0.2820   23.2020 C   0  0  0  0  0  0  0  0  0  0  0  0
   13.9390    0.7890   23.5060 S   0  0  0  0  0  0  0  0  0  0  0  0
   14.0410    2.3600   22.5550 C   0  0  0  0  0  0  0  0  0  0  0  0
   12.9740    3.3840   23.0070 C   0  0  0  0  0  0  0  0  0  0  0  0
   13.5140    4.8300   23.0230 C   0  0  0  0  0  0  0  0  0  0  0  0
   12.6190    5.7610   23.8630 C   0  0  0  0  0  0  0  0  0  0  0  0
   13.2200    7.0430   23.9790 O   0  0  0  0  0  0  0  0  0  0  0  0
   11.2300    0.6710   24.0640 C   0  0  0  0  0  0  0  0  0  0  0  0
    9.8980    0.3840   23.7300 C   0  0  0  0  0  0  0  0  0  0  0  0
    6.4880   -0.0370   20.7220 N   0  0  0  0  0  0  0  0  0  0  0  0
    5.8090    0.5180   19.6110 C   0  0  0  0  0  0  0  0  0  0  0  0
    4.8390    1.5030   19.8290 C   0  0  0  0  0  0  0  0  0  0  0  0
    4.3000    2.1440   18.7070 C   0  0  0  0  0  0  0  0  0  0  0  0
    4.7550    1.8000   17.4260 C   0  0  0  0  0  0  0  0  0  0  0  0
    5.6500    0.8110   17.2020 N   0  0  0  0  0  0  0  0  0  0  0  0
    6.1750    0.2010   18.2840 C   0  0  0  0  0  0  0  0  0  0  0  0
  1  2  2  0
  2  3  1  0
  2 16  1  0
  3  4  1  0
  4  5  2  0
  4 15  1  0
  5  6  1  0
  6  7  2  0
  7  8  1  0
  7 14  1  0
  8  9  1  0
  9 10  1  0
 10 11  1  0
 11 12  1  0
 12 13  1  0
 14 15  2  0
 16 17  1  0
 17 18  2  0
 17 22  1  0
 18 19  1  0
 19 20  2  0
 20 21  1  0
 21 22  2  0
M  END
>  <original SMILES>  (398) 
O=C(Nc1ccc(SCCCCO)cc1)Nc1cccnc1

>  <AutoDock Predicted Affinity>  (398) 
-4.968675

>  <ref_pdb>  (398) 
x0434_0

>  <ref_mols>  (398) 
x0434_0

>  <creator>  (398) 
Will Poole

>  <energy minimised>  (398) 
True

$$$$
WPC0960_minimised.pdb
     RDKit          3D

 21 22  0  0  0  0  0  0  0  0999 V2000
    8.6140    0.2130   19.9040 O   0  0  0  0  0  0  0  0  0  0  0  0
    7.8770   -0.0530   20.8340 C   0  0  0  0  0  0  0  0  0  0  0  0
    8.3130   -0.3440   22.0990 N   0  0  0  0  0  0  0  0  0  0  0  0
    9.6430   -0.1650   22.5320 C   0  0  0  0  0  0  0  0  0  0  0  0
   10.7080   -0.6790   21.7750 C   0  0  0  0  0  0  0  0  0  0  0  0
   12.0290   -0.3230   22.0790 C   0  0  0  0  0  0  0  0  0  0  0  0
   12.2810    0.5320   23.1590 C   0  0  0  0  0  0  0  0  0  0  0  0
   13.9410    1.0660   23.4720 S   0  0  0  0  0  0  0  0  0  0  0  0
   14.0970    2.6260   22.5020 C   0  0  0  0  0  0  0  0  0  0  0  0
   13.0100    3.6710   22.8420 C   0  0  0  0  0  0  0  0  0  0  0  0
   13.1410    4.9670   22.0240 C   0  0  0  0  0  0  0  0  0  0  0  0
   14.4100    5.6010   22.2200 O   0  0  0  0  0  0  0  0  0  0  0  0
   11.2260    0.9810   23.9700 C   0  0  0  0  0  0  0  0  0  0  0  0
    9.9040    0.6370   23.6530 C   0  0  0  0  0  0  0  0  0  0  0  0
    6.5150   -0.0350   20.7160 N   0  0  0  0  0  0  0  0  0  0  0  0
    5.8260    0.5070   19.6050 C   0  0  0  0  0  0  0  0  0  0  0  0
    4.8520    1.4880   19.8230 C   0  0  0  0  0  0  0  0  0  0  0  0
    4.3090    2.1260   18.7010 C   0  0  0  0  0  0  0  0  0  0  0  0
    4.7640    1.7830   17.4200 C   0  0  0  0  0  0  0  0  0  0  0  0
    5.6620    0.7970   17.1960 N   0  0  0  0  0  0  0  0  0  0  0  0
    6.1900    0.1880   18.2780 C   0  0  0  0  0  0  0  0  0  0  0  0
  1  2  2  0
  2  3  1  0
  2 15  1  0
  3  4  1  0
  4  5  2  0
  4 14  1  0
  5  6  1  0
  6  7  2  0
  7  8  1  0
  7 13  1  0
  8  9  1  0
  9 10  1  0
 10 11  1  0
 11 12  1  0
 13 14  2  0
 15 16  1  0
 16 17  2  0
 16 21  1  0
 17 18  1  0
 18 19  2  0
 19 20  1  0
 20 21  2  0
M  END
>  <original SMILES>  (399) 
O=C(Nc1ccc(SCCCO)cc1)Nc1cccnc1

>  <AutoDock Predicted Affinity>  (399) 
-5.278498

>  <ref_pdb>  (399) 
x0434_0

>  <ref_mols>  (399) 
x0434_0

>  <creator>  (399) 
Will Poole

>  <energy minimised>  (399) 
True

$$$$
WPC0888_minimised.pdb
     RDKit          3D

 23 24  0  0  0  0  0  0  0  0999 V2000
    8.5720    0.2790   19.9160 O   0  0  0  0  0  0  0  0  0  0  0  0
    7.7780    0.0470   20.8090 C   0  0  0  0  0  0  0  0  0  0  0  0
    8.1290   -0.2890   22.0890 N   0  0  0  0  0  0  0  0  0  0  0  0
    9.4450   -0.2140   22.5870 C   0  0  0  0  0  0  0  0  0  0  0  0
   10.5040   -0.7920   21.8670 C   0  0  0  0  0  0  0  0  0  0  0  0
   11.8290   -0.5300   22.2350 C   0  0  0  0  0  0  0  0  0  0  0  0
   12.0880    0.2910   23.3410 C   0  0  0  0  0  0  0  0  0  0  0  0
   13.7520    0.7810   23.6840 S   0  0  0  0  0  0  0  0  0  0  0  0
   14.0900    1.9500   22.3080 C   0  0  0  0  0  0  0  0  0  0  0  0
   13.0710    3.1070   22.2450 C   0  0  0  0  0  0  0  0  0  0  0  0
   13.2260    4.0480   23.3660 N   0  0  0  0  0  0  0  0  0  0  0  0
   12.3450    5.2280   23.2350 C   0  0  0  0  0  0  0  0  0  0  0  0
   10.8500    4.9030   23.4630 C   0  0  0  0  0  0  0  0  0  0  0  0
   10.7320    4.1650   24.6700 O   0  0  0  0  0  0  0  0  0  0  0  0
   11.0330    0.7960   24.1160 C   0  0  0  0  0  0  0  0  0  0  0  0
    9.7070    0.5490   23.7340 C   0  0  0  0  0  0  0  0  0  0  0  0
    6.4260    0.1380   20.6380 N   0  0  0  0  0  0  0  0  0  0  0  0
    5.7950    0.6930   19.5020 C   0  0  0  0  0  0  0  0  0  0  0  0
    4.8050    1.6650   19.6860 C   0  0  0  0  0  0  0  0  0  0  0  0
    4.3040    2.3040   18.5460 C   0  0  0  0  0  0  0  0  0  0  0  0
    4.8140    1.9730   17.2840 C   0  0  0  0  0  0  0  0  0  0  0  0
    5.7280    0.9950   17.0920 N   0  0  0  0  0  0  0  0  0  0  0  0
    6.2150    0.3840   18.1900 C   0  0  0  0  0  0  0  0  0  0  0  0
  1  2  2  0
  2  3  1  0
  2 17  1  0
  3  4  1  0
  4  5  2  0
  4 16  1  0
  5  6  1  0
  6  7  2  0
  7  8  1  0
  7 15  1  0
  8  9  1  0
  9 10  1  0
 10 11  1  0
 11 12  1  0
 12 13  1  0
 13 14  1  0
 15 16  2  0
 17 18  1  0
 18 19  2  0
 18 23  1  0
 19 20  1  0
 20 21  2  0
 21 22  1  0
 22 23  2  0
M  END
>  <original SMILES>  (400) 
O=C(Nc1ccc(SCCNCCO)cc1)Nc1cccnc1

>  <AutoDock Predicted Affinity>  (400) 
-4.89594

>  <ref_pdb>  (400) 
x0434_0

>  <ref_mols>  (400) 
x0434_0

>  <creator>  (400) 
Will Poole

>  <energy minimised>  (400) 
True

$$$$
WPC0833_minimised.pdb
     RDKit          3D

 20 21  0  0  0  0  0  0  0  0999 V2000
    8.7170    0.2190   19.8790 O   0  0  0  0  0  0  0  0  0  0  0  0
    8.0240    0.0680   20.8660 C   0  0  0  0  0  0  0  0  0  0  0  0
    8.5230   -0.0180   22.1380 N   0  0  0  0  0  0  0  0  0  0  0  0
    9.8440    0.3440   22.4780 C   0  0  0  0  0  0  0  0  0  0  0  0
   10.9350   -0.2210   21.7960 C   0  0  0  0  0  0  0  0  0  0  0  0
   12.2260    0.2890   21.9950 C   0  0  0  0  0  0  0  0  0  0  0  0
   12.4230    1.3580   22.8810 C   0  0  0  0  0  0  0  0  0  0  0  0
   14.0520    2.0320   23.0520 S   0  0  0  0  0  0  0  0  0  0  0  0
   13.9840    3.7250   22.3160 C   0  0  0  0  0  0  0  0  0  0  0  0
   13.1720    4.7580   23.1100 C   0  0  0  0  0  0  0  0  0  0  0  0
   13.6380    6.0620   22.7710 O   0  0  0  0  0  0  0  0  0  0  0  0
   11.3470    1.8740   23.6190 C   0  0  0  0  0  0  0  0  0  0  0  0
   10.0540    1.3690   23.4130 C   0  0  0  0  0  0  0  0  0  0  0  0
    6.6580    0.0480   20.8020 N   0  0  0  0  0  0  0  0  0  0  0  0
    5.9240    0.5200   19.6870 C   0  0  0  0  0  0  0  0  0  0  0  0
    4.9590    1.5140   19.8900 C   0  0  0  0  0  0  0  0  0  0  0  0
    4.3780    2.0980   18.7580 C   0  0  0  0  0  0  0  0  0  0  0  0
    4.7920    1.6970   17.4810 C   0  0  0  0  0  0  0  0  0  0  0  0
    5.6780    0.6960   17.2740 N   0  0  0  0  0  0  0  0  0  0  0  0
    6.2400    0.1360   18.3650 C   0  0  0  0  0  0  0  0  0  0  0  0
  1  2  2  0
  2  3  1  0
  2 14  1  0
  3  4  1  0
  4  5  2  0
  4 13  1  0
  5  6  1  0
  6  7  2  0
  7  8  1  0
  7 12  1  0
  8  9  1  0
  9 10  1  0
 10 11  1  0
 12 13  2  0
 14 15  1  0
 15 16  2  0
 15 20  1  0
 16 17  1  0
 17 18  2  0
 18 19  1  0
 19 20  2  0
M  END
>  <original SMILES>  (401) 
O=C(Nc1ccc(SCCO)cc1)Nc1cccnc1

>  <AutoDock Predicted Affinity>  (401) 
-5.09808

>  <ref_pdb>  (401) 
x0434_0

>  <ref_mols>  (401) 
x0434_0

>  <creator>  (401) 
Will Poole

>  <energy minimised>  (401) 
True

$$$$
WPC0432_minimised.pdb
     RDKit          3D

 23 24  0  0  0  0  0  0  0  0999 V2000
    8.5230    0.3820   20.0530 O   0  0  0  0  0  0  0  0  0  0  0  0
    7.7690   -0.0360   21.0220 C   0  0  0  0  0  0  0  0  0  0  0  0
    8.2040   -0.5330   22.2070 N   0  0  0  0  0  0  0  0  0  0  0  0
    9.6480   -0.5370   22.4960 C   0  0  0  0  0  0  0  0  0  0  0  0
   10.4610   -1.0390   21.7380 C   0  0  0  0  0  0  0  0  0  0  0  0
   11.9430   -0.7830   21.9020 C   0  0  0  0  0  0  0  0  0  0  0  0
   12.2960   -0.1870   23.0910 C   0  0  0  0  0  0  0  0  0  0  0  0
   13.9450    0.3770   23.2810 S   0  0  0  0  0  0  0  0  0  0  0  0
   13.9640    2.0110   22.5310 C   0  0  0  0  0  0  0  0  0  0  0  0
   12.7020    2.8270   22.8020 C   0  0  0  0  0  0  0  0  0  0  0  0
   12.8790    4.6480   22.5120 P   0  0  0  0  0  0  0  0  0  0  0  0
   13.9450    5.3900   22.7860 O   0  0  0  0  0  0  0  0  0  0  0  0
   11.4370    5.2480   22.5750 O   0  0  0  0  0  0  0  0  0  0  0  0
   13.4600    5.0260   23.5490 O   0  0  0  0  0  0  0  0  0  0  0  0
   11.3310    0.2300   24.0050 C   0  0  0  0  0  0  0  0  0  0  0  0
   10.0040    0.0390   23.8850 C   0  0  0  0  0  0  0  0  0  0  0  0
    6.4210    0.0690   20.8570 N   0  0  0  0  0  0  0  0  0  0  0  0
    5.7800    0.5750   19.7130 C   0  0  0  0  0  0  0  0  0  0  0  0
    4.6880    1.6440   19.9060 C   0  0  0  0  0  0  0  0  0  0  0  0
    4.1970    2.1600   18.7360 C   0  0  0  0  0  0  0  0  0  0  0  0
    4.7180    1.7810   17.4670 C   0  0  0  0  0  0  0  0  0  0  0  0
    5.6460    0.8310   17.3130 N   0  0  0  0  0  0  0  0  0  0  0  0
    6.1020    0.2670   18.5290 C   0  0  0  0  0  0  0  0  0  0  0  0
  1  2  2  0
  2  3  1  0
  2 17  1  0
  3  4  1  0
  4  5  2  0
  4 16  1  0
  5  6  1  0
  6  7  2  0
  7  8  1  0
  7 15  1  0
  8  9  1  0
  9 10  1  0
 10 11  1  0
 11 12  2  0
 11 13  1  0
 11 14  1  0
 15 16  2  0
 17 18  1  0
 18 19  2  0
 18 23  1  0
 19 20  1  0
 20 21  2  0
 21 22  1  0
 22 23  2  0
M  END
>  <original SMILES>  (402) 
O=C(Nc1ccc(SCCP(=O)(O)O)cc1)Nc1cccnc1

>  <AutoDock Predicted Affinity>  (402) 
-5.941483

>  <ref_pdb>  (402) 
x0434_0

>  <ref_mols>  (402) 
x0434_0

>  <creator>  (402) 
Will Poole

>  <energy minimised>  (402) 
True

$$$$
WPC1053_minimised.pdb
     RDKit          3D

 24 26  0  0  0  0  0  0  0  0999 V2000
    8.3970   -0.1020   19.8650 O   0  0  0  0  0  0  0  0  0  0  0  0
    7.5830   -0.2540   20.7580 C   0  0  0  0  0  0  0  0  0  0  0  0
    7.8920   -0.5460   22.0600 N   0  0  0  0  0  0  0  0  0  0  0  0
    9.1770   -0.3870   22.6110 C   0  0  0  0  0  0  0  0  0  0  0  0
   10.2930   -0.9410   21.9670 C   0  0  0  0  0  0  0  0  0  0  0  0
   11.5820   -0.5600   22.3540 C   0  0  0  0  0  0  0  0  0  0  0  0
   11.7480    0.3590   23.4010 C   0  0  0  0  0  0  0  0  0  0  0  0
   13.3460    1.0630   23.6690 S   0  0  0  0  0  0  0  0  0  0  0  0
   13.4790    2.0760   22.1420 C   0  0  0  0  0  0  0  0  0  0  0  0
   13.6030    3.5920   22.4140 C   0  0  0  0  0  0  0  0  0  0  0  0
   12.4820    4.1980   23.1500 N   0  0  0  0  0  0  0  0  0  0  0  0
   12.5810    5.2330   24.0520 C   0  0  0  0  0  0  0  0  0  0  0  0
   11.3190    5.4380   24.5360 C   0  0  0  0  0  0  0  0  0  0  0  0
   10.4300    4.5910   23.9330 N   0  0  0  0  0  0  0  0  0  0  0  0
   11.1370    3.8830   23.0680 C   0  0  0  0  0  0  0  0  0  0  0  0
   10.6400    0.8330   24.1180 C   0  0  0  0  0  0  0  0  0  0  0  0
    9.3480    0.4620   23.7160 C   0  0  0  0  0  0  0  0  0  0  0  0
    6.2390   -0.0900   20.5780 N   0  0  0  0  0  0  0  0  0  0  0  0
    5.6370    0.5330   19.4610 C   0  0  0  0  0  0  0  0  0  0  0  0
    4.6730    1.5240   19.6810 C   0  0  0  0  0  0  0  0  0  0  0  0
    4.1860    2.2160   18.5660 C   0  0  0  0  0  0  0  0  0  0  0  0
    4.6820    1.9120   17.2910 C   0  0  0  0  0  0  0  0  0  0  0  0
    5.5770    0.9230   17.0640 N   0  0  0  0  0  0  0  0  0  0  0  0
    6.0520    0.2640   18.1400 C   0  0  0  0  0  0  0  0  0  0  0  0
  1  2  2  0
  2  3  1  0
  2 18  1  0
  3  4  1  0
  4  5  2  0
  4 17  1  0
  5  6  1  0
  6  7  2  0
  7  8  1  0
  7 16  1  0
  8  9  1  0
  9 10  1  0
 10 11  1  0
 11 12  1  0
 11 15  1  0
 12 13  2  0
 13 14  1  0
 14 15  2  0
 16 17  2  0
 18 19  1  0
 19 20  2  0
 19 24  1  0
 20 21  1  0
 21 22  2  0
 22 23  1  0
 23 24  2  0
M  END
>  <original SMILES>  (403) 
O=C(Nc1ccc(SCCn2ccnc2)cc1)Nc1cccnc1

>  <AutoDock Predicted Affinity>  (403) 
-5.67275

>  <ref_pdb>  (403) 
x0434_0

>  <ref_mols>  (403) 
x0434_0

>  <creator>  (403) 
Will Poole

>  <energy minimised>  (403) 
True

$$$$
WPC0621_minimised.pdb
     RDKit          3D

 24 26  0  0  0  0  0  0  0  0999 V2000
    8.4580    0.3420   19.8780 O   0  0  0  0  0  0  0  0  0  0  0  0
    7.7140    0.2150   20.8330 C   0  0  0  0  0  0  0  0  0  0  0  0
    8.1430   -0.1030   22.0930 N   0  0  0  0  0  0  0  0  0  0  0  0
    9.5000   -0.3110   22.4000 C   0  0  0  0  0  0  0  0  0  0  0  0
   10.2010   -1.2970   21.6910 C   0  0  0  0  0  0  0  0  0  0  0  0
   11.5950   -1.3460   21.7640 C   0  0  0  0  0  0  0  0  0  0  0  0
   12.2860   -0.4310   22.5600 C   0  0  0  0  0  0  0  0  0  0  0  0
   14.0500   -0.4080   22.4430 S   0  0  0  0  0  0  0  0  0  0  0  0
   14.3040    1.1860   21.5820 C   0  0  0  0  0  0  0  0  0  0  0  0
   14.6720    2.2760   22.5950 C   0  0  0  0  0  0  0  0  0  0  0  0
   13.8720    3.4990   22.5270 N   0  0  0  0  0  0  0  0  0  0  0  0
   14.3020    4.8040   22.5070 C   0  0  0  0  0  0  0  0  0  0  0  0
   13.2560    5.5950   22.4670 N   0  0  0  0  0  0  0  0  0  0  0  0
   12.1810    4.7380   22.4890 C   0  0  0  0  0  0  0  0  0  0  0  0
   12.5200    3.4640   22.5580 N   0  0  0  0  0  0  0  0  0  0  0  0
   11.5840    0.4960   23.3470 C   0  0  0  0  0  0  0  0  0  0  0  0
   10.1830    0.5630   23.2600 C   0  0  0  0  0  0  0  0  0  0  0  0
    6.3600    0.3760   20.7400 N   0  0  0  0  0  0  0  0  0  0  0  0
    5.6730    0.8400   19.5930 C   0  0  0  0  0  0  0  0  0  0  0  0
    4.6710    1.8040   19.7530 C   0  0  0  0  0  0  0  0  0  0  0  0
    4.1090    2.3520   18.5940 C   0  0  0  0  0  0  0  0  0  0  0  0
    4.5730    1.9410   17.3370 C   0  0  0  0  0  0  0  0  0  0  0  0
    5.4880    0.9600   17.1700 N   0  0  0  0  0  0  0  0  0  0  0  0
    6.0350    0.4390   18.2870 C   0  0  0  0  0  0  0  0  0  0  0  0
  1  2  2  0
  2  3  1  0
  2 18  1  0
  3  4  1  0
  4  5  2  0
  4 17  1  0
  5  6  1  0
  6  7  2  0
  7  8  1  0
  7 16  1  0
  8  9  1  0
  9 10  1  0
 10 11  1  0
 11 12  1  0
 11 15  1  0
 12 13  2  0
 13 14  1  0
 14 15  2  0
 16 17  2  0
 18 19  1  0
 19 20  2  0
 19 24  1  0
 20 21  1  0
 21 22  2  0
 22 23  1  0
 23 24  2  0
M  END
>  <original SMILES>  (404) 
O=C(Nc1ccc(SCCn2cncn2)cc1)Nc1cccnc1

>  <AutoDock Predicted Affinity>  (404) 
-5.02109

>  <ref_pdb>  (404) 
x0434_0

>  <ref_mols>  (404) 
x0434_0

>  <creator>  (404) 
Will Poole

>  <energy minimised>  (404) 
True

$$$$
WPC0442_minimised.pdb
     RDKit          3D

 24 26  0  0  0  0  0  0  0  0999 V2000
    8.5420    0.2800   19.9910 O   0  0  0  0  0  0  0  0  0  0  0  0
    7.7710   -0.0220   20.8820 C   0  0  0  0  0  0  0  0  0  0  0  0
    8.1550   -0.4080   22.1410 N   0  0  0  0  0  0  0  0  0  0  0  0
    9.4800   -0.3230   22.6180 C   0  0  0  0  0  0  0  0  0  0  0  0
   10.5390   -0.8100   21.8360 C   0  0  0  0  0  0  0  0  0  0  0  0
   11.8630   -0.4910   22.1640 C   0  0  0  0  0  0  0  0  0  0  0  0
   12.1230    0.2940   23.2940 C   0  0  0  0  0  0  0  0  0  0  0  0
   13.7690    0.8960   23.5520 S   0  0  0  0  0  0  0  0  0  0  0  0
   13.8300    2.3640   22.4370 C   0  0  0  0  0  0  0  0  0  0  0  0
   12.9360    3.5140   22.8890 C   0  0  0  0  0  0  0  0  0  0  0  0
   11.5410    3.4500   22.7230 C   0  0  0  0  0  0  0  0  0  0  0  0
   10.7160    4.4880   23.1860 C   0  0  0  0  0  0  0  0  0  0  0  0
   11.2820    5.6140   23.7980 C   0  0  0  0  0  0  0  0  0  0  0  0
   12.6760    5.7100   23.9240 C   0  0  0  0  0  0  0  0  0  0  0  0
   13.4990    4.6710   23.4520 C   0  0  0  0  0  0  0  0  0  0  0  0
   11.0750    0.6800   24.1460 C   0  0  0  0  0  0  0  0  0  0  0  0
    9.7480    0.3790   23.8020 C   0  0  0  0  0  0  0  0  0  0  0  0
    6.4150    0.0290   20.7210 N   0  0  0  0  0  0  0  0  0  0  0  0
    5.7650    0.5850   19.5950 C   0  0  0  0  0  0  0  0  0  0  0  0
    4.7840    1.5650   19.7890 C   0  0  0  0  0  0  0  0  0  0  0  0
    4.2650    2.1980   18.6520 C   0  0  0  0  0  0  0  0  0  0  0  0
    4.7440    1.8460   17.3820 C   0  0  0  0  0  0  0  0  0  0  0  0
    5.6510    0.8630   17.1820 N   0  0  0  0  0  0  0  0  0  0  0  0
    6.1610    0.2650   18.2770 C   0  0  0  0  0  0  0  0  0  0  0  0
  1  2  2  0
  2  3  1  0
  2 18  1  0
  3  4  1  0
  4  5  2  0
  4 17  1  0
  5  6  1  0
  6  7  2  0
  7  8  1  0
  7 16  1  0
  8  9  1  0
  9 10  1  0
 10 11  2  0
 10 15  1  0
 11 12  1  0
 12 13  2  0
 13 14  1  0
 14 15  2  0
 16 17  2  0
 18 19  1  0
 19 20  2  0
 19 24  1  0
 20 21  1  0
 21 22  2  0
 22 23  1  0
 23 24  2  0
M  END
>  <original SMILES>  (405) 
O=C(Nc1ccc(SCc2ccccc2)cc1)Nc1cccnc1

>  <AutoDock Predicted Affinity>  (405) 
-5.98777

>  <ref_pdb>  (405) 
x0434_0

>  <ref_mols>  (405) 
x0434_0

>  <creator>  (405) 
Will Poole

>  <energy minimised>  (405) 
True

$$$$
WPC0684_minimised.pdb
     RDKit          3D

 24 26  0  0  0  0  0  0  0  0999 V2000
    8.6330    0.0390   19.9970 O   0  0  0  0  0  0  0  0  0  0  0  0
    7.8890   -0.1890   20.9300 C   0  0  0  0  0  0  0  0  0  0  0  0
    8.3080   -0.5410   22.1890 N   0  0  0  0  0  0  0  0  0  0  0  0
    9.6520   -0.4940   22.6180 C   0  0  0  0  0  0  0  0  0  0  0  0
   10.6650   -1.0550   21.8250 C   0  0  0  0  0  0  0  0  0  0  0  0
   12.0130   -0.7920   22.1040 C   0  0  0  0  0  0  0  0  0  0  0  0
   12.3480    0.0080   23.2040 C   0  0  0  0  0  0  0  0  0  0  0  0
   14.0360    0.5160   23.4350 S   0  0  0  0  0  0  0  0  0  0  0  0
   14.2120    1.9040   22.2340 C   0  0  0  0  0  0  0  0  0  0  0  0
   13.3080    3.0870   22.5390 C   0  0  0  0  0  0  0  0  0  0  0  0
   13.8090    4.3040   23.0340 C   0  0  0  0  0  0  0  0  0  0  0  0
   12.9090    5.3310   23.3650 C   0  0  0  0  0  0  0  0  0  0  0  0
   11.5400    5.0940   23.1730 C   0  0  0  0  0  0  0  0  0  0  0  0
   11.1300    3.8640   22.6400 C   0  0  0  0  0  0  0  0  0  0  0  0
   12.0000    2.8930   22.3180 N   0  0  0  0  0  0  0  0  0  0  0  0
   11.3400    0.4760   24.0640 C   0  0  0  0  0  0  0  0  0  0  0  0
    9.9900    0.2330   23.7680 C   0  0  0  0  0  0  0  0  0  0  0  0
    6.5300   -0.0790   20.8170 N   0  0  0  0  0  0  0  0  0  0  0  0
    5.8610    0.4710   19.6960 C   0  0  0  0  0  0  0  0  0  0  0  0
    4.9010    1.4680   19.9020 C   0  0  0  0  0  0  0  0  0  0  0  0
    4.3570    2.0900   18.7710 C   0  0  0  0  0  0  0  0  0  0  0  0
    4.7910    1.7100   17.4930 C   0  0  0  0  0  0  0  0  0  0  0  0
    5.6790    0.7120   17.2820 N   0  0  0  0  0  0  0  0  0  0  0  0
    6.2140    0.1240   18.3720 C   0  0  0  0  0  0  0  0  0  0  0  0
  1  2  2  0
  2  3  1  0
  2 18  1  0
  3  4  1  0
  4  5  2  0
  4 17  1  0
  5  6  1  0
  6  7  2  0
  7  8  1  0
  7 16  1  0
  8  9  1  0
  9 10  1  0
 10 11  2  0
 10 15  1  0
 11 12  1  0
 12 13  2  0
 13 14  1  0
 14 15  2  0
 16 17  2  0
 18 19  1  0
 19 20  2  0
 19 24  1  0
 20 21  1  0
 21 22  2  0
 22 23  1  0
 23 24  2  0
M  END
>  <original SMILES>  (406) 
O=C(Nc1ccc(SCc2ccccn2)cc1)Nc1cccnc1

>  <AutoDock Predicted Affinity>  (406) 
-5.87766

>  <ref_pdb>  (406) 
x0434_0

>  <ref_mols>  (406) 
x0434_0

>  <creator>  (406) 
Will Poole

>  <energy minimised>  (406) 
True

$$$$
WPC0862_minimised.pdb
     RDKit          3D

 24 26  0  0  0  0  0  0  0  0999 V2000
    8.5550    0.0850   19.8700 O   0  0  0  0  0  0  0  0  0  0  0  0
    7.8140   -0.2140   20.7870 C   0  0  0  0  0  0  0  0  0  0  0  0
    8.2350   -0.5710   22.0420 N   0  0  0  0  0  0  0  0  0  0  0  0
    9.5460   -0.3580   22.5210 C   0  0  0  0  0  0  0  0  0  0  0  0
   10.6540   -0.6900   21.7250 C   0  0  0  0  0  0  0  0  0  0  0  0
   11.9290   -0.2190   22.0610 C   0  0  0  0  0  0  0  0  0  0  0  0
   12.0940    0.5520   23.2170 C   0  0  0  0  0  0  0  0  0  0  0  0
   13.6580    1.3200   23.5110 S   0  0  0  0  0  0  0  0  0  0  0  0
   13.5320    2.9330   22.6180 C   0  0  0  0  0  0  0  0  0  0  0  0
   12.4660    3.8800   23.1560 C   0  0  0  0  0  0  0  0  0  0  0  0
   12.8420    5.0380   23.8500 C   0  0  0  0  0  0  0  0  0  0  0  0
   11.8380    5.9070   24.3000 C   0  0  0  0  0  0  0  0  0  0  0  0
   10.4990    5.5880   24.0290 C   0  0  0  0  0  0  0  0  0  0  0  0
   10.1290    4.4900   23.3590 N   0  0  0  0  0  0  0  0  0  0  0  0
   11.0950    3.6680   22.9020 C   0  0  0  0  0  0  0  0  0  0  0  0
   11.0140    0.7770   24.0850 C   0  0  0  0  0  0  0  0  0  0  0  0
    9.7320    0.3320   23.7280 C   0  0  0  0  0  0  0  0  0  0  0  0
    6.4530   -0.1670   20.6650 N   0  0  0  0  0  0  0  0  0  0  0  0
    5.7810    0.4340   19.5730 C   0  0  0  0  0  0  0  0  0  0  0  0
    4.8360    1.4370   19.8240 C   0  0  0  0  0  0  0  0  0  0  0  0
    4.3090    2.1230   18.7220 C   0  0  0  0  0  0  0  0  0  0  0  0
    4.7490    1.8030   17.4300 C   0  0  0  0  0  0  0  0  0  0  0  0
    5.6230    0.8030   17.1760 N   0  0  0  0  0  0  0  0  0  0  0  0
    6.1370    0.1490   18.2370 C   0  0  0  0  0  0  0  0  0  0  0  0
  1  2  2  0
  2  3  1  0
  2 18  1  0
  3  4  1  0
  4  5  2  0
  4 17  1  0
  5  6  1  0
  6  7  2  0
  7  8  1  0
  7 16  1  0
  8  9  1  0
  9 10  1  0
 10 11  2  0
 10 15  1  0
 11 12  1  0
 12 13  2  0
 13 14  1  0
 14 15  2  0
 16 17  2  0
 18 19  1  0
 19 20  2  0
 19 24  1  0
 20 21  1  0
 21 22  2  0
 22 23  1  0
 23 24  2  0
M  END
>  <original SMILES>  (407) 
O=C(Nc1ccc(SCc2cccnc2)cc1)Nc1cccnc1

>  <AutoDock Predicted Affinity>  (407) 
-5.892135

>  <ref_pdb>  (407) 
x0434_0

>  <ref_mols>  (407) 
x0434_0

>  <creator>  (407) 
Will Poole

>  <energy minimised>  (407) 
True

$$$$
WPC0467_minimised.pdb
     RDKit          3D

 24 26  0  0  0  0  0  0  0  0999 V2000
    8.5590    0.1640   19.9180 O   0  0  0  0  0  0  0  0  0  0  0  0
    7.8020   -0.1450   20.8190 C   0  0  0  0  0  0  0  0  0  0  0  0
    8.2000   -0.4760   22.0880 N   0  0  0  0  0  0  0  0  0  0  0  0
    9.4920   -0.2210   22.5880 C   0  0  0  0  0  0  0  0  0  0  0  0
   10.6230   -0.6100   21.8520 C   0  0  0  0  0  0  0  0  0  0  0  0
   11.8860   -0.1140   22.1960 C   0  0  0  0  0  0  0  0  0  0  0  0
   12.0110    0.7600   23.2830 C   0  0  0  0  0  0  0  0  0  0  0  0
   13.5650    1.5500   23.5700 S   0  0  0  0  0  0  0  0  0  0  0  0
   13.4150    3.2230   22.7860 C   0  0  0  0  0  0  0  0  0  0  0  0
   12.3440    4.1300   23.3700 C   0  0  0  0  0  0  0  0  0  0  0  0
   12.6790    5.2270   24.1730 C   0  0  0  0  0  0  0  0  0  0  0  0
   11.6730    6.1000   24.6100 C   0  0  0  0  0  0  0  0  0  0  0  0
   10.3810    5.9550   24.2660 N   0  0  0  0  0  0  0  0  0  0  0  0
   10.0520    4.9170   23.4720 C   0  0  0  0  0  0  0  0  0  0  0  0
   10.9960    3.9860   23.0170 C   0  0  0  0  0  0  0  0  0  0  0  0
   10.9050    1.0450   24.1000 C   0  0  0  0  0  0  0  0  0  0  0  0
    9.6380    0.5610   23.7440 C   0  0  0  0  0  0  0  0  0  0  0  0
    6.4440   -0.1300   20.6730 N   0  0  0  0  0  0  0  0  0  0  0  0
    5.7740    0.4520   19.5720 C   0  0  0  0  0  0  0  0  0  0  0  0
    4.8130    1.4430   19.8090 C   0  0  0  0  0  0  0  0  0  0  0  0
    4.2750    2.1060   18.6990 C   0  0  0  0  0  0  0  0  0  0  0  0
    4.7180    1.7730   17.4110 C   0  0  0  0  0  0  0  0  0  0  0  0
    5.6110    0.7850   17.1700 N   0  0  0  0  0  0  0  0  0  0  0  0
    6.1380    0.1570   18.2400 C   0  0  0  0  0  0  0  0  0  0  0  0
  1  2  2  0
  2  3  1  0
  2 18  1  0
  3  4  1  0
  4  5  2  0
  4 17  1  0
  5  6  1  0
  6  7  2  0
  7  8  1  0
  7 16  1  0
  8  9  1  0
  9 10  1  0
 10 11  2  0
 10 15  1  0
 11 12  1  0
 12 13  2  0
 13 14  1  0
 14 15  2  0
 16 17  2  0
 18 19  1  0
 19 20  2  0
 19 24  1  0
 20 21  1  0
 21 22  2  0
 22 23  1  0
 23 24  2  0
M  END
>  <original SMILES>  (408) 
O=C(Nc1ccc(SCc2ccncc2)cc1)Nc1cccnc1

>  <AutoDock Predicted Affinity>  (408) 
-5.612015

>  <ref_pdb>  (408) 
x0434_0

>  <ref_mols>  (408) 
x0434_0

>  <creator>  (408) 
Will Poole

>  <energy minimised>  (408) 
True

$$$$
WPC0877_minimised.pdb
     RDKit          3D

 23 25  0  0  0  0  0  0  0  0999 V2000
    8.6030    0.2540   19.9270 O   0  0  0  0  0  0  0  0  0  0  0  0
    7.8920   -0.0140   20.8770 C   0  0  0  0  0  0  0  0  0  0  0  0
    8.3620   -0.2090   22.1480 N   0  0  0  0  0  0  0  0  0  0  0  0
    9.6670    0.1540   22.5430 C   0  0  0  0  0  0  0  0  0  0  0  0
   10.7790   -0.3450   21.8430 C   0  0  0  0  0  0  0  0  0  0  0  0
   12.0480    0.2090   22.0620 C   0  0  0  0  0  0  0  0  0  0  0  0
   12.2000    1.2590   22.9780 C   0  0  0  0  0  0  0  0  0  0  0  0
   13.7740    2.0590   23.1070 S   0  0  0  0  0  0  0  0  0  0  0  0
   13.5050    3.7750   22.4610 C   0  0  0  0  0  0  0  0  0  0  0  0
   12.5400    4.6080   23.2530 C   0  0  0  0  0  0  0  0  0  0  0  0
   11.2650    4.9270   22.8570 N   0  0  0  0  0  0  0  0  0  0  0  0
   10.7360    5.7650   23.8170 C   0  0  0  0  0  0  0  0  0  0  0  0
   11.7340    5.9340   24.7440 C   0  0  0  0  0  0  0  0  0  0  0  0
   12.8450    5.2170   24.3800 N   0  0  0  0  0  0  0  0  0  0  0  0
   11.1110    1.6860   23.7540 C   0  0  0  0  0  0  0  0  0  0  0  0
    9.8390    1.1360   23.5310 C   0  0  0  0  0  0  0  0  0  0  0  0
    6.5290   -0.0690   20.7710 N   0  0  0  0  0  0  0  0  0  0  0  0
    5.8170    0.4540   19.6640 C   0  0  0  0  0  0  0  0  0  0  0  0
    4.8540    1.4450   19.8880 C   0  0  0  0  0  0  0  0  0  0  0  0
    4.3020    2.0810   18.7690 C   0  0  0  0  0  0  0  0  0  0  0  0
    4.7350    1.7220   17.4840 C   0  0  0  0  0  0  0  0  0  0  0  0
    5.6250    0.7300   17.2560 N   0  0  0  0  0  0  0  0  0  0  0  0
    6.1630    0.1240   18.3350 C   0  0  0  0  0  0  0  0  0  0  0  0
  1  2  2  0
  2  3  1  0
  2 17  1  0
  3  4  1  0
  4  5  2  0
  4 16  1  0
  5  6  1  0
  6  7  2  0
  7  8  1  0
  7 15  1  0
  8  9  1  0
  9 10  1  0
 10 11  1  0
 10 14  2  0
 11 12  1  0
 12 13  2  0
 13 14  1  0
 15 16  2  0
 17 18  1  0
 18 19  2  0
 18 23  1  0
 19 20  1  0
 20 21  2  0
 21 22  1  0
 22 23  2  0
M  END
>  <original SMILES>  (409) 
O=C(Nc1ccc(SCc2ncc[nH]2)cc1)Nc1cccnc1

>  <AutoDock Predicted Affinity>  (409) 
-5.959015

>  <ref_pdb>  (409) 
x0434_0

>  <ref_mols>  (409) 
x0434_0

>  <creator>  (409) 
Will Poole

>  <energy minimised>  (409) 
True

$$$$
WPC0686_minimised.pdb
     RDKit          3D

 24 26  0  0  0  0  0  0  0  0999 V2000
    8.6440    0.2480   19.9510 O   0  0  0  0  0  0  0  0  0  0  0  0
    7.9310   -0.0640   20.8850 C   0  0  0  0  0  0  0  0  0  0  0  0
    8.3960   -0.3380   22.1430 N   0  0  0  0  0  0  0  0  0  0  0  0
    9.7080   -0.0340   22.5600 C   0  0  0  0  0  0  0  0  0  0  0  0
   10.8090   -0.4550   21.7970 C   0  0  0  0  0  0  0  0  0  0  0  0
   12.0840    0.0640   22.0570 C   0  0  0  0  0  0  0  0  0  0  0  0
   12.2530    0.9980   23.0870 C   0  0  0  0  0  0  0  0  0  0  0  0
   13.8340    1.7660   23.2990 S   0  0  0  0  0  0  0  0  0  0  0  0
   13.7220    3.4480   22.5280 C   0  0  0  0  0  0  0  0  0  0  0  0
   12.7530    4.2500   23.2950 N   0  0  0  0  0  0  0  0  0  0  0  0
   11.3680    4.3510   23.1560 C   0  0  0  0  0  0  0  0  0  0  0  0
   11.0330    5.4430   23.9150 C   0  0  0  0  0  0  0  0  0  0  0  0
   12.1830    6.1090   24.4760 C   0  0  0  0  0  0  0  0  0  0  0  0
   12.2360    7.1510   25.0960 O   0  0  0  0  0  0  0  0  0  0  0  0
   13.2350    5.3360   24.0810 N   0  0  0  0  0  0  0  0  0  0  0  0
   11.1790    1.3240   23.9310 C   0  0  0  0  0  0  0  0  0  0  0  0
    9.9000    0.8170   23.6590 C   0  0  0  0  0  0  0  0  0  0  0  0
    6.5690   -0.1050   20.7750 N   0  0  0  0  0  0  0  0  0  0  0  0
    5.8620    0.4320   19.6730 C   0  0  0  0  0  0  0  0  0  0  0  0
    4.9000    1.4230   19.9030 C   0  0  0  0  0  0  0  0  0  0  0  0
    4.3410    2.0600   18.7870 C   0  0  0  0  0  0  0  0  0  0  0  0
    4.7660    1.7030   17.4990 C   0  0  0  0  0  0  0  0  0  0  0  0
    5.6560    0.7120   17.2660 N   0  0  0  0  0  0  0  0  0  0  0  0
    6.2010    0.1070   18.3410 C   0  0  0  0  0  0  0  0  0  0  0  0
  1  2  2  0
  2  3  1  0
  2 18  1  0
  3  4  1  0
  4  5  2  0
  4 17  1  0
  5  6  1  0
  6  7  2  0
  7  8  1  0
  7 16  1  0
  8  9  1  0
  9 10  1  0
 10 11  1  0
 10 15  1  0
 11 12  2  0
 12 13  1  0
 13 14  2  0
 13 15  1  0
 16 17  2  0
 18 19  1  0
 19 20  2  0
 19 24  1  0
 20 21  1  0
 21 22  2  0
 22 23  1  0
 23 24  2  0
M  END
>  <original SMILES>  (410) 
O=C(Nc1ccc(SCn2ccc(=O)[nH]2)cc1)Nc1cccnc1

>  <AutoDock Predicted Affinity>  (410) 
-5.923495

>  <ref_pdb>  (410) 
x0434_0

>  <ref_mols>  (410) 
x0434_0

>  <creator>  (410) 
Will Poole

>  <energy minimised>  (410) 
True

$$$$
WPC0836_minimised.pdb
     RDKit          3D

 23 24  0  0  1  0  0  0  0  0999 V2000
   12.6440    4.5710   23.4750 O   0  0  0  0  0  0  0  0  0  0  0  0
   12.5860    3.3600   23.4410 C   0  0  0  0  0  0  0  0  0  0  0  0
   11.6230    2.7060   24.0920 O   0  0  0  0  0  0  0  0  0  0  0  0
   13.6950    2.5400   22.8830 C   0  0  0  0  0  0  0  0  0  0  0  0
   14.0130    1.2310   23.0820 C   0  0  0  0  0  0  0  0  0  0  0  0
   13.3860    0.1780   23.9850 C   0  0  2  0  0  0  0  0  0  0  0  0
   14.2010   -0.9820   23.9410 O   0  0  0  0  0  0  0  0  0  0  0  0
   11.9880   -0.2060   23.5560 C   0  0  0  0  0  0  0  0  0  0  0  0
   11.7780   -0.6480   22.2420 C   0  0  0  0  0  0  0  0  0  0  0  0
   10.4760   -0.8620   21.7840 C   0  0  0  0  0  0  0  0  0  0  0  0
    9.3750   -0.5970   22.6120 C   0  0  0  0  0  0  0  0  0  0  0  0
    8.0660   -0.5790   22.0820 N   0  0  0  0  0  0  0  0  0  0  0  0
    7.7180   -0.0930   20.8480 C   0  0  0  0  0  0  0  0  0  0  0  0
    8.5050    0.2490   19.9860 O   0  0  0  0  0  0  0  0  0  0  0  0
    6.3660   -0.0070   20.6730 N   0  0  0  0  0  0  0  0  0  0  0  0
    5.7380    0.5830   19.5520 C   0  0  0  0  0  0  0  0  0  0  0  0
    4.7590    1.5640   19.7510 C   0  0  0  0  0  0  0  0  0  0  0  0
    4.2590    2.2200   18.6200 C   0  0  0  0  0  0  0  0  0  0  0  0
    4.7570    1.8930   17.3500 C   0  0  0  0  0  0  0  0  0  0  0  0
    5.6620    0.9100   17.1440 N   0  0  0  0  0  0  0  0  0  0  0  0
    6.1520    0.2870   18.2340 C   0  0  0  0  0  0  0  0  0  0  0  0
    9.5870   -0.2520   23.9550 C   0  0  0  0  0  0  0  0  0  0  0  0
   10.8940   -0.0800   24.4360 C   0  0  0  0  0  0  0  0  0  0  0  0
  1  2  2  0
  2  3  1  0
  2  4  1  0
  4  5  2  0
  5  6  1  0
  6  7  1  6
  6  8  1  0
  8 23  2  0
  8  9  1  0
  9 10  2  0
 10 11  1  0
 11 12  1  0
 11 22  2  0
 12 13  1  0
 13 14  2  0
 13 15  1  0
 15 16  1  0
 16 17  2  0
 16 21  1  0
 17 18  1  0
 18 19  2  0
 19 20  1  0
 20 21  2  0
 22 23  1  0
M  END
>  <original SMILES>  (411) 
O=C(O)C=CC(O)c1ccc(NC(=O)Nc2cccnc2)cc1

>  <AutoDock Predicted Affinity>  (411) 
-6.11911

>  <ref_pdb>  (411) 
x0434_0

>  <ref_mols>  (411) 
x0434_0

>  <creator>  (411) 
Will Poole

>  <energy minimised>  (411) 
True

$$$$
WPC0387_minimised.pdb
     RDKit          3D

 22 23  0  0  0  0  0  0  0  0999 V2000
   14.3750    4.9730   22.6180 O   0  0  0  0  0  0  0  0  0  0  0  0
   13.3010    4.4760   22.3530 C   0  0  0  0  0  0  0  0  0  0  0  0
   12.2210    5.2270   22.1240 O   0  0  0  0  0  0  0  0  0  0  0  0
   13.0390    3.0290   22.4820 C   0  0  0  0  0  0  0  0  0  0  0  0
   14.0600    2.1840   22.7520 C   0  0  0  0  0  0  0  0  0  0  0  0
   13.9410    0.4740   23.0460 S   0  0  0  0  0  0  0  0  0  0  0  0
   12.2220    0.0560   22.9040 C   0  0  0  0  0  0  0  0  0  0  0  0
   11.8330   -0.8490   21.9080 C   0  0  0  0  0  0  0  0  0  0  0  0
   10.4730   -1.1050   21.7030 C   0  0  0  0  0  0  0  0  0  0  0  0
    9.5060   -0.4400   22.4690 C   0  0  0  0  0  0  0  0  0  0  0  0
    8.1570   -0.4830   22.0690 N   0  0  0  0  0  0  0  0  0  0  0  0
    7.7450   -0.1190   20.8160 C   0  0  0  0  0  0  0  0  0  0  0  0
    8.5060    0.1370   19.9010 O   0  0  0  0  0  0  0  0  0  0  0  0
    6.3880   -0.0300   20.6900 N   0  0  0  0  0  0  0  0  0  0  0  0
    5.7230    0.5360   19.5770 C   0  0  0  0  0  0  0  0  0  0  0  0
    4.7510    1.5190   19.7960 C   0  0  0  0  0  0  0  0  0  0  0  0
    4.2210    2.1690   18.6740 C   0  0  0  0  0  0  0  0  0  0  0  0
    4.6890    1.8380   17.3950 C   0  0  0  0  0  0  0  0  0  0  0  0
    5.5840    0.8500   17.1710 N   0  0  0  0  0  0  0  0  0  0  0  0
    6.0970    0.2270   18.2510 C   0  0  0  0  0  0  0  0  0  0  0  0
    9.8960    0.3940   23.5270 C   0  0  0  0  0  0  0  0  0  0  0  0
   11.2600    0.6310   23.7530 C   0  0  0  0  0  0  0  0  0  0  0  0
  1  2  2  0
  2  3  1  0
  2  4  1  0
  4  5  2  0
  5  6  1  0
  6  7  1  0
  7 22  2  0
  7  8  1  0
  8  9  2  0
  9 10  1  0
 10 11  1  0
 10 21  2  0
 11 12  1  0
 12 13  2  0
 12 14  1  0
 14 15  1  0
 15 16  2  0
 15 20  1  0
 16 17  1  0
 17 18  2  0
 18 19  1  0
 19 20  2  0
 21 22  1  0
M  END
>  <original SMILES>  (412) 
O=C(O)C=CSc1ccc(NC(=O)Nc2cccnc2)cc1

>  <AutoDock Predicted Affinity>  (412) 
-5.36393

>  <ref_pdb>  (412) 
x0434_0

>  <ref_mols>  (412) 
x0434_0

>  <creator>  (412) 
Will Poole

>  <energy minimised>  (412) 
True

$$$$
WPC1066_minimised.pdb
     RDKit          3D

 23 24  0  0  0  0  0  0  0  0999 V2000
   12.7820    5.6850   23.7120 O   0  0  0  0  0  0  0  0  0  0  0  0
   13.4050    5.2890   22.7410 C   0  0  0  0  0  0  0  0  0  0  0  0
   13.9630    6.1710   21.8800 O   0  0  0  0  0  0  0  0  0  0  0  0
   13.6830    3.8570   22.4030 C   0  0  0  0  0  0  0  0  0  0  0  0
   13.2730    2.9170   23.1890 N   0  0  0  0  0  0  0  0  0  0  0  0
   13.9830    1.7270   22.9720 O   0  0  0  0  0  0  0  0  0  0  0  0
   13.4890    0.6050   23.7130 C   0  0  0  0  0  0  0  0  0  0  0  0
   12.0680    0.2550   23.3100 C   0  0  0  0  0  0  0  0  0  0  0  0
   11.8320   -0.6240   22.2400 C   0  0  0  0  0  0  0  0  0  0  0  0
   10.5160   -0.9020   21.8450 C   0  0  0  0  0  0  0  0  0  0  0  0
    9.4380   -0.2970   22.5090 C   0  0  0  0  0  0  0  0  0  0  0  0
    8.1250   -0.4380   22.0210 N   0  0  0  0  0  0  0  0  0  0  0  0
    7.7510   -0.1490   20.7390 C   0  0  0  0  0  0  0  0  0  0  0  0
    8.5280    0.0470   19.8240 O   0  0  0  0  0  0  0  0  0  0  0  0
    6.3950   -0.0470   20.5960 N   0  0  0  0  0  0  0  0  0  0  0  0
    5.7450    0.5390   19.4850 C   0  0  0  0  0  0  0  0  0  0  0  0
    4.7720    1.5190   19.7130 C   0  0  0  0  0  0  0  0  0  0  0  0
    4.2520    2.1910   18.6000 C   0  0  0  0  0  0  0  0  0  0  0  0
    4.7310    1.8830   17.3200 C   0  0  0  0  0  0  0  0  0  0  0  0
    5.6310    0.9010   17.0850 N   0  0  0  0  0  0  0  0  0  0  0  0
    6.1330    0.2560   18.1580 C   0  0  0  0  0  0  0  0  0  0  0  0
    9.6700    0.5430   23.6060 C   0  0  0  0  0  0  0  0  0  0  0  0
   10.9840    0.8180   24.0080 C   0  0  0  0  0  0  0  0  0  0  0  0
  1  2  2  0
  2  3  1  0
  2  4  1  0
  4  5  2  0
  5  6  1  0
  6  7  1  0
  7  8  1  0
  8 23  2  0
  8  9  1  0
  9 10  2  0
 10 11  1  0
 11 12  1  0
 11 22  2  0
 12 13  1  0
 13 14  2  0
 13 15  1  0
 15 16  1  0
 16 17  2  0
 16 21  1  0
 17 18  1  0
 18 19  2  0
 19 20  1  0
 20 21  2  0
 22 23  1  0
M  END
>  <original SMILES>  (413) 
O=C(O)C=NOCc1ccc(NC(=O)Nc2cccnc2)cc1

>  <AutoDock Predicted Affinity>  (413) 
-5.784

>  <ref_pdb>  (413) 
x0434_0

>  <ref_mols>  (413) 
x0434_0

>  <creator>  (413) 
Will Poole

>  <energy minimised>  (413) 
True

$$$$
WPC0588_minimised.pdb
     RDKit          3D

 24 25  0  0  0  0  0  0  0  0999 V2000
   10.5310    5.7300   24.5760 O   0  0  0  0  0  0  0  0  0  0  0  0
   10.3710    5.3010   23.4500 C   0  0  0  0  0  0  0  0  0  0  0  0
    9.4630    5.8450   22.6260 O   0  0  0  0  0  0  0  0  0  0  0  0
   11.2340    4.2060   22.8250 C   0  0  0  0  0  0  0  0  0  0  0  0
   12.3530    3.6910   23.7660 C   0  0  0  0  0  0  0  0  0  0  0  0
   13.2040    2.5850   23.1360 C   0  0  0  0  0  0  0  0  0  0  0  0
   13.9290    2.8420   22.1960 O   0  0  0  0  0  0  0  0  0  0  0  0
   13.1090    1.1670   23.7150 C   0  0  0  0  0  0  0  0  0  0  0  0
   11.7590    0.5340   23.4390 C   0  0  0  0  0  0  0  0  0  0  0  0
   11.6150   -0.3490   22.3580 C   0  0  0  0  0  0  0  0  0  0  0  0
   10.3380   -0.7610   21.9610 C   0  0  0  0  0  0  0  0  0  0  0  0
    9.2070   -0.2980   22.6490 C   0  0  0  0  0  0  0  0  0  0  0  0
    7.9240   -0.4730   22.1010 N   0  0  0  0  0  0  0  0  0  0  0  0
    7.5910   -0.0940   20.8290 C   0  0  0  0  0  0  0  0  0  0  0  0
    8.3910    0.2170   19.9660 O   0  0  0  0  0  0  0  0  0  0  0  0
    6.2420   -0.0420   20.6370 N   0  0  0  0  0  0  0  0  0  0  0  0
    5.6140    0.5440   19.5160 C   0  0  0  0  0  0  0  0  0  0  0  0
    4.6430    1.5310   19.7230 C   0  0  0  0  0  0  0  0  0  0  0  0
    4.1300    2.1830   18.5960 C   0  0  0  0  0  0  0  0  0  0  0  0
    4.6050    1.8390   17.3220 C   0  0  0  0  0  0  0  0  0  0  0  0
    5.5120    0.8580   17.1110 N   0  0  0  0  0  0  0  0  0  0  0  0
    6.0170    0.2420   18.1980 C   0  0  0  0  0  0  0  0  0  0  0  0
    9.3570    0.4690   23.8120 C   0  0  0  0  0  0  0  0  0  0  0  0
   10.6360    0.8740   24.2170 C   0  0  0  0  0  0  0  0  0  0  0  0
  1  2  2  0
  2  3  1  0
  2  4  1  0
  4  5  1  0
  5  6  1  0
  6  7  2  0
  6  8  1  0
  8  9  1  0
  9 24  2  0
  9 10  1  0
 10 11  2  0
 11 12  1  0
 12 13  1  0
 12 23  2  0
 13 14  1  0
 14 15  2  0
 14 16  1  0
 16 17  1  0
 17 18  2  0
 17 22  1  0
 18 19  1  0
 19 20  2  0
 20 21  1  0
 21 22  2  0
 23 24  1  0
M  END
>  <original SMILES>  (414) 
O=C(O)CCC(=O)Cc1ccc(NC(=O)Nc2cccnc2)cc1

>  <AutoDock Predicted Affinity>  (414) 
-5.579583

>  <ref_pdb>  (414) 
x0434_0

>  <ref_mols>  (414) 
x0434_0

>  <creator>  (414) 
Will Poole

>  <energy minimised>  (414) 
True

$$$$
WPC0931_minimised.pdb
     RDKit          3D

 23 24  0  0  0  0  0  0  0  0999 V2000
   12.9990    5.3540   21.0880 O   0  0  0  0  0  0  0  0  0  0  0  0
   13.8110    5.4410   21.9760 C   0  0  0  0  0  0  0  0  0  0  0  0
   14.3020    6.6430   22.3220 O   0  0  0  0  0  0  0  0  0  0  0  0
   14.5650    4.2300   22.5060 C   0  0  0  0  0  0  0  0  0  0  0  0
   13.6470    3.0020   22.7310 C   0  0  0  0  0  0  0  0  0  0  0  0
   14.4170    1.6660   22.6040 C   0  0  0  0  0  0  0  0  0  0  0  0
   13.8240    0.5190   23.4400 C   0  0  0  0  0  0  0  0  0  0  0  0
   12.3640    0.2460   23.1370 C   0  0  0  0  0  0  0  0  0  0  0  0
   12.0160   -0.6130   22.0820 C   0  0  0  0  0  0  0  0  0  0  0  0
   10.6660   -0.8340   21.7810 C   0  0  0  0  0  0  0  0  0  0  0  0
    9.6600   -0.1830   22.5090 C   0  0  0  0  0  0  0  0  0  0  0  0
    8.3150   -0.2730   22.0970 N   0  0  0  0  0  0  0  0  0  0  0  0
    7.8820   -0.0100   20.8250 C   0  0  0  0  0  0  0  0  0  0  0  0
    8.6180    0.1810   19.8770 O   0  0  0  0  0  0  0  0  0  0  0  0
    6.5200    0.0580   20.7260 N   0  0  0  0  0  0  0  0  0  0  0  0
    5.8220    0.5720   19.6090 C   0  0  0  0  0  0  0  0  0  0  0  0
    4.8350    1.5430   19.8190 C   0  0  0  0  0  0  0  0  0  0  0  0
    4.2650    2.1440   18.6910 C   0  0  0  0  0  0  0  0  0  0  0  0
    4.7050    1.7750   17.4120 C   0  0  0  0  0  0  0  0  0  0  0  0
    5.6140    0.7970   17.1970 N   0  0  0  0  0  0  0  0  0  0  0  0
    6.1700    0.2260   18.2840 C   0  0  0  0  0  0  0  0  0  0  0  0
   10.0010    0.6360   23.5930 C   0  0  0  0  0  0  0  0  0  0  0  0
   11.3510    0.8440   23.9100 C   0  0  0  0  0  0  0  0  0  0  0  0
  1  2  2  0
  2  3  1  0
  2  4  1  0
  4  5  1  0
  5  6  1  0
  6  7  1  0
  7  8  1  0
  8 23  2  0
  8  9  1  0
  9 10  2  0
 10 11  1  0
 11 12  1  0
 11 22  2  0
 12 13  1  0
 13 14  2  0
 13 15  1  0
 15 16  1  0
 16 17  2  0
 16 21  1  0
 17 18  1  0
 18 19  2  0
 19 20  1  0
 20 21  2  0
 22 23  1  0
M  END
>  <original SMILES>  (415) 
O=C(O)CCCCc1ccc(NC(=O)Nc2cccnc2)cc1

>  <AutoDock Predicted Affinity>  (415) 
-6.085022

>  <ref_pdb>  (415) 
x0434_0

>  <ref_mols>  (415) 
x0434_0

>  <creator>  (415) 
Will Poole

>  <energy minimised>  (415) 
True

$$$$
WPC0418_minimised.pdb
     RDKit          3D

 23 24  0  0  0  0  0  0  0  0999 V2000
   10.7630    5.8130   24.3390 O   0  0  0  0  0  0  0  0  0  0  0  0
   11.9500    5.9550   24.1310 C   0  0  0  0  0  0  0  0  0  0  0  0
   12.6480    6.9280   24.7410 O   0  0  0  0  0  0  0  0  0  0  0  0
   12.7820    5.0760   23.1980 C   0  0  0  0  0  0  0  0  0  0  0  0
   12.4720    3.5700   23.3510 C   0  0  0  0  0  0  0  0  0  0  0  0
   13.6210    2.6930   22.8030 C   0  0  0  0  0  0  0  0  0  0  0  0
   13.6590    1.0080   23.5500 S   0  0  0  0  0  0  0  0  0  0  0  0
   12.0340    0.3900   23.2190 C   0  0  0  0  0  0  0  0  0  0  0  0
   11.8320   -0.4090   22.0880 C   0  0  0  0  0  0  0  0  0  0  0  0
   10.5310   -0.7960   21.7420 C   0  0  0  0  0  0  0  0  0  0  0  0
    9.4370   -0.3580   22.5050 C   0  0  0  0  0  0  0  0  0  0  0  0
    8.1230   -0.5220   22.0190 N   0  0  0  0  0  0  0  0  0  0  0  0
    7.7330   -0.1740   20.7530 C   0  0  0  0  0  0  0  0  0  0  0  0
    8.4990    0.0920   19.8460 O   0  0  0  0  0  0  0  0  0  0  0  0
    6.3760   -0.1000   20.6110 N   0  0  0  0  0  0  0  0  0  0  0  0
    5.7270    0.5050   19.5100 C   0  0  0  0  0  0  0  0  0  0  0  0
    4.7670    1.4960   19.7480 C   0  0  0  0  0  0  0  0  0  0  0  0
    4.2590    2.1860   18.6400 C   0  0  0  0  0  0  0  0  0  0  0  0
    4.7330    1.8830   17.3560 C   0  0  0  0  0  0  0  0  0  0  0  0
    5.6210    0.8920   17.1140 N   0  0  0  0  0  0  0  0  0  0  0  0
    6.1150    0.2330   18.1810 C   0  0  0  0  0  0  0  0  0  0  0  0
    9.6500    0.3700   23.6840 C   0  0  0  0  0  0  0  0  0  0  0  0
   10.9540    0.7360   24.0490 C   0  0  0  0  0  0  0  0  0  0  0  0
  1  2  2  0
  2  3  1  0
  2  4  1  0
  4  5  1  0
  5  6  1  0
  6  7  1  0
  7  8  1  0
  8 23  2  0
  8  9  1  0
  9 10  2  0
 10 11  1  0
 11 12  1  0
 11 22  2  0
 12 13  1  0
 13 14  2  0
 13 15  1  0
 15 16  1  0
 16 17  2  0
 16 21  1  0
 17 18  1  0
 18 19  2  0
 19 20  1  0
 20 21  2  0
 22 23  1  0
M  END
>  <original SMILES>  (416) 
O=C(O)CCCSc1ccc(NC(=O)Nc2cccnc2)cc1

>  <AutoDock Predicted Affinity>  (416) 
-5.5441

>  <ref_pdb>  (416) 
x0434_0

>  <ref_mols>  (416) 
x0434_0

>  <creator>  (416) 
Will Poole

>  <energy minimised>  (416) 
True

$$$$
WPC0799_minimised.pdb
     RDKit          3D

 23 24  0  0  0  0  0  0  0  0999 V2000
   10.7770    5.7350   24.4520 O   0  0  0  0  0  0  0  0  0  0  0  0
   11.9430    5.9220   24.1700 C   0  0  0  0  0  0  0  0  0  0  0  0
   12.6340    6.9360   24.7180 O   0  0  0  0  0  0  0  0  0  0  0  0
   12.7770    5.0100   23.2760 C   0  0  0  0  0  0  0  0  0  0  0  0
   12.3720    3.5270   23.3830 C   0  0  0  0  0  0  0  0  0  0  0  0
   13.7790    2.4850   22.8090 S   0  0  0  0  0  0  0  0  0  0  0  0
   13.4200    0.8560   23.5910 C   0  0  0  0  0  0  0  0  0  0  0  0
   12.0320    0.3640   23.2530 C   0  0  0  0  0  0  0  0  0  0  0  0
   11.8310   -0.3960   22.0920 C   0  0  0  0  0  0  0  0  0  0  0  0
   10.5340   -0.7730   21.7270 C   0  0  0  0  0  0  0  0  0  0  0  0
    9.4330   -0.3630   22.4940 C   0  0  0  0  0  0  0  0  0  0  0  0
    8.1200   -0.5260   22.0070 N   0  0  0  0  0  0  0  0  0  0  0  0
    7.7270   -0.1760   20.7430 C   0  0  0  0  0  0  0  0  0  0  0  0
    8.4890    0.0910   19.8330 O   0  0  0  0  0  0  0  0  0  0  0  0
    6.3700   -0.1010   20.6060 N   0  0  0  0  0  0  0  0  0  0  0  0
    5.7170    0.5020   19.5060 C   0  0  0  0  0  0  0  0  0  0  0  0
    4.7570    1.4930   19.7440 C   0  0  0  0  0  0  0  0  0  0  0  0
    4.2450    2.1810   18.6370 C   0  0  0  0  0  0  0  0  0  0  0  0
    4.7180    1.8780   17.3520 C   0  0  0  0  0  0  0  0  0  0  0  0
    5.6070    0.8880   17.1090 N   0  0  0  0  0  0  0  0  0  0  0  0
    6.1020    0.2280   18.1750 C   0  0  0  0  0  0  0  0  0  0  0  0
    9.6380    0.3310   23.6930 C   0  0  0  0  0  0  0  0  0  0  0  0
   10.9380    0.6830   24.0810 C   0  0  0  0  0  0  0  0  0  0  0  0
  1  2  2  0
  2  3  1  0
  2  4  1  0
  4  5  1  0
  5  6  1  0
  6  7  1  0
  7  8  1  0
  8 23  2  0
  8  9  1  0
  9 10  2  0
 10 11  1  0
 11 12  1  0
 11 22  2  0
 12 13  1  0
 13 14  2  0
 13 15  1  0
 15 16  1  0
 16 17  2  0
 16 21  1  0
 17 18  1  0
 18 19  2  0
 19 20  1  0
 20 21  2  0
 22 23  1  0
M  END
>  <original SMILES>  (417) 
O=C(O)CCSCc1ccc(NC(=O)Nc2cccnc2)cc1

>  <AutoDock Predicted Affinity>  (417) 
-5.483033

>  <ref_pdb>  (417) 
x0434_0

>  <ref_mols>  (417) 
x0434_0

>  <creator>  (417) 
Will Poole

>  <energy minimised>  (417) 
True

$$$$
WPC0664_minimised.pdb
     RDKit          3D

 22 23  0  0  0  0  0  0  0  0999 V2000
   13.2260    5.2020   23.9420 O   0  0  0  0  0  0  0  0  0  0  0  0
   12.6960    4.6560   22.9970 C   0  0  0  0  0  0  0  0  0  0  0  0
   12.6510    5.2310   21.7870 O   0  0  0  0  0  0  0  0  0  0  0  0
   12.3790    3.1730   23.0120 C   0  0  0  0  0  0  0  0  0  0  0  0
   13.6410    2.3270   22.7170 C   0  0  0  0  0  0  0  0  0  0  0  0
   13.6160    0.7010   23.5770 S   0  0  0  0  0  0  0  0  0  0  0  0
   11.9800    0.1100   23.2450 C   0  0  0  0  0  0  0  0  0  0  0  0
   11.7470   -0.6180   22.0730 C   0  0  0  0  0  0  0  0  0  0  0  0
   10.4330   -0.9440   21.7190 C   0  0  0  0  0  0  0  0  0  0  0  0
    9.3580   -0.5140   22.5110 C   0  0  0  0  0  0  0  0  0  0  0  0
    8.0420   -0.5920   22.0110 N   0  0  0  0  0  0  0  0  0  0  0  0
    7.6790   -0.1510   20.7660 C   0  0  0  0  0  0  0  0  0  0  0  0
    8.4650    0.1870   19.9000 O   0  0  0  0  0  0  0  0  0  0  0  0
    6.3250   -0.0810   20.5940 N   0  0  0  0  0  0  0  0  0  0  0  0
    5.6960    0.5360   19.4890 C   0  0  0  0  0  0  0  0  0  0  0  0
    4.7270    1.5210   19.7150 C   0  0  0  0  0  0  0  0  0  0  0  0
    4.2360    2.2150   18.6030 C   0  0  0  0  0  0  0  0  0  0  0  0
    4.7370    1.9240   17.3260 C   0  0  0  0  0  0  0  0  0  0  0  0
    5.6360    0.9410   17.0930 N   0  0  0  0  0  0  0  0  0  0  0  0
    6.1110    0.2760   18.1650 C   0  0  0  0  0  0  0  0  0  0  0  0
    9.6000    0.1290   23.7340 C   0  0  0  0  0  0  0  0  0  0  0  0
   10.9170    0.4290   24.1080 C   0  0  0  0  0  0  0  0  0  0  0  0
  1  2  2  0
  2  3  1  0
  2  4  1  0
  4  5  1  0
  5  6  1  0
  6  7  1  0
  7 22  2  0
  7  8  1  0
  8  9  2  0
  9 10  1  0
 10 11  1  0
 10 21  2  0
 11 12  1  0
 12 13  2  0
 12 14  1  0
 14 15  1  0
 15 16  2  0
 15 20  1  0
 16 17  1  0
 17 18  2  0
 18 19  1  0
 19 20  2  0
 21 22  1  0
M  END
>  <original SMILES>  (418) 
O=C(O)CCSc1ccc(NC(=O)Nc2cccnc2)cc1

>  <AutoDock Predicted Affinity>  (418) 
-5.662455

>  <ref_pdb>  (418) 
x0434_0

>  <ref_mols>  (418) 
x0434_0

>  <creator>  (418) 
Will Poole

>  <energy minimised>  (418) 
True

$$$$
WPC0783_minimised.pdb
     RDKit          3D

 21 22  0  0  0  0  0  0  0  0999 V2000
   14.4610    4.1340   23.2910 O   0  0  0  0  0  0  0  0  0  0  0  0
   13.7230    3.2580   22.8810 C   0  0  0  0  0  0  0  0  0  0  0  0
   12.3940    3.4220   22.9040 O   0  0  0  0  0  0  0  0  0  0  0  0
   14.1950    1.8450   22.5230 C   0  0  0  0  0  0  0  0  0  0  0  0
   13.6790    0.7100   23.4330 C   0  0  0  0  0  0  0  0  0  0  0  0
   12.2230    0.3790   23.1770 C   0  0  0  0  0  0  0  0  0  0  0  0
   11.8840   -0.4480   22.0950 C   0  0  0  0  0  0  0  0  0  0  0  0
   10.5360   -0.6900   21.8030 C   0  0  0  0  0  0  0  0  0  0  0  0
    9.5250   -0.0880   22.5650 C   0  0  0  0  0  0  0  0  0  0  0  0
    8.1830   -0.1680   22.1410 N   0  0  0  0  0  0  0  0  0  0  0  0
    7.7630    0.1230   20.8710 C   0  0  0  0  0  0  0  0  0  0  0  0
    8.5120    0.3490   19.9390 O   0  0  0  0  0  0  0  0  0  0  0  0
    6.4030    0.1700   20.7460 N   0  0  0  0  0  0  0  0  0  0  0  0
    5.7190    0.6680   19.6120 C   0  0  0  0  0  0  0  0  0  0  0  0
    4.7310    1.6430   19.7930 C   0  0  0  0  0  0  0  0  0  0  0  0
    4.1800    2.2300   18.6480 C   0  0  0  0  0  0  0  0  0  0  0  0
    4.6350    1.8370   17.3810 C   0  0  0  0  0  0  0  0  0  0  0  0
    5.5460    0.8550   17.1940 N   0  0  0  0  0  0  0  0  0  0  0  0
    6.0860    0.3000   18.2980 C   0  0  0  0  0  0  0  0  0  0  0  0
    9.8600    0.6810   23.6870 C   0  0  0  0  0  0  0  0  0  0  0  0
   11.2090    0.9020   24.0020 C   0  0  0  0  0  0  0  0  0  0  0  0
  1  2  2  0
  2  3  1  0
  2  4  1  0
  4  5  1  0
  5  6  1  0
  6 21  2  0
  6  7  1  0
  7  8  2  0
  8  9  1  0
  9 10  1  0
  9 20  2  0
 10 11  1  0
 11 12  2  0
 11 13  1  0
 13 14  1  0
 14 15  2  0
 14 19  1  0
 15 16  1  0
 16 17  2  0
 17 18  1  0
 18 19  2  0
 20 21  1  0
M  END
>  <original SMILES>  (419) 
O=C(O)CCc1ccc(NC(=O)Nc2cccnc2)cc1

>  <AutoDock Predicted Affinity>  (419) 
-5.760897

>  <ref_pdb>  (419) 
x0434_0

>  <ref_mols>  (419) 
x0434_0

>  <creator>  (419) 
Will Poole

>  <energy minimised>  (419) 
True

$$$$
WPC1019_minimised.pdb
     RDKit          3D

 24 25  0  0  0  0  0  0  0  0999 V2000
   14.1400    6.4370   21.8920 O   0  0  0  0  0  0  0  0  0  0  0  0
   13.4410    5.4570   21.7340 C   0  0  0  0  0  0  0  0  0  0  0  0
   13.3120    4.9010   20.5270 O   0  0  0  0  0  0  0  0  0  0  0  0
   12.4020    4.9540   22.7510 C   0  0  0  0  0  0  0  0  0  0  0  0
   12.3840    3.4710   22.8780 N   0  0  0  0  0  0  0  0  0  0  0  0
   13.5220    2.7460   23.1560 C   0  0  0  0  0  0  0  0  0  0  0  0
   14.5880    3.3160   23.2240 O   0  0  0  0  0  0  0  0  0  0  0  0
   13.3880    1.2500   23.4630 C   0  0  0  0  0  0  0  0  0  0  0  0
   12.0160    0.6590   23.1900 C   0  0  0  0  0  0  0  0  0  0  0  0
   11.8360   -0.2060   22.1000 C   0  0  0  0  0  0  0  0  0  0  0  0
   10.5500   -0.6530   21.7760 C   0  0  0  0  0  0  0  0  0  0  0  0
    9.4440   -0.2280   22.5270 C   0  0  0  0  0  0  0  0  0  0  0  0
    8.1380   -0.4540   22.0530 N   0  0  0  0  0  0  0  0  0  0  0  0
    7.7300   -0.1090   20.7920 C   0  0  0  0  0  0  0  0  0  0  0  0
    8.4880    0.2220   19.9000 O   0  0  0  0  0  0  0  0  0  0  0  0
    6.3730   -0.1110   20.6390 N   0  0  0  0  0  0  0  0  0  0  0  0
    5.7100    0.4760   19.5360 C   0  0  0  0  0  0  0  0  0  0  0  0
    4.7450    1.4640   19.7680 C   0  0  0  0  0  0  0  0  0  0  0  0
    4.2350    2.1470   18.6570 C   0  0  0  0  0  0  0  0  0  0  0  0
    4.7120    1.8400   17.3750 C   0  0  0  0  0  0  0  0  0  0  0  0
    5.6050    0.8530   17.1370 N   0  0  0  0  0  0  0  0  0  0  0  0
    6.1020    0.2010   18.2070 C   0  0  0  0  0  0  0  0  0  0  0  0
    9.6350    0.5550   23.6750 C   0  0  0  0  0  0  0  0  0  0  0  0
   10.9240    0.9870   24.0160 C   0  0  0  0  0  0  0  0  0  0  0  0
  1  2  2  0
  2  3  1  0
  2  4  1  0
  4  5  1  0
  5  6  1  0
  6  7  2  0
  6  8  1  0
  8  9  1  0
  9 24  2  0
  9 10  1  0
 10 11  2  0
 11 12  1  0
 12 13  1  0
 12 23  2  0
 13 14  1  0
 14 15  2  0
 14 16  1  0
 16 17  1  0
 17 18  2  0
 17 22  1  0
 18 19  1  0
 19 20  2  0
 20 21  1  0
 21 22  2  0
 23 24  1  0
M  END
>  <original SMILES>  (420) 
O=C(O)CNC(=O)Cc1ccc(NC(=O)Nc2cccnc2)cc1

>  <AutoDock Predicted Affinity>  (420) 
-5.884433

>  <ref_pdb>  (420) 
x0434_0

>  <ref_mols>  (420) 
x0434_0

>  <creator>  (420) 
Will Poole

>  <energy minimised>  (420) 
True

$$$$
WPC0968_minimised.pdb
     RDKit          3D

 23 24  0  0  0  0  0  0  0  0999 V2000
   11.0940    6.0500   24.5780 O   0  0  0  0  0  0  0  0  0  0  0  0
   10.9690    5.4160   23.5490 C   0  0  0  0  0  0  0  0  0  0  0  0
    9.9260    5.6650   22.7300 O   0  0  0  0  0  0  0  0  0  0  0  0
   12.0200    4.4020   23.0380 C   0  0  0  0  0  0  0  0  0  0  0  0
   11.9940    3.0550   23.6820 N   0  0  0  0  0  0  0  0  0  0  0  0
   12.9740    2.1120   23.1160 C   0  0  0  0  0  0  0  0  0  0  0  0
   12.8910    0.7120   23.7490 C   0  0  0  0  0  0  0  0  0  0  0  0
   11.5360    0.1010   23.4620 C   0  0  0  0  0  0  0  0  0  0  0  0
   11.3600   -0.6720   22.3040 C   0  0  0  0  0  0  0  0  0  0  0  0
   10.0680   -1.0080   21.8890 C   0  0  0  0  0  0  0  0  0  0  0  0
    8.9560   -0.5450   22.6080 C   0  0  0  0  0  0  0  0  0  0  0  0
    7.6780   -0.5850   22.0210 N   0  0  0  0  0  0  0  0  0  0  0  0
    7.4120   -0.1180   20.7610 C   0  0  0  0  0  0  0  0  0  0  0  0
    8.2570    0.1770   19.9330 O   0  0  0  0  0  0  0  0  0  0  0  0
    6.0750    0.0280   20.5320 N   0  0  0  0  0  0  0  0  0  0  0  0
    5.5140    0.6620   19.4020 C   0  0  0  0  0  0  0  0  0  0  0  0
    4.5400    1.6510   19.5870 C   0  0  0  0  0  0  0  0  0  0  0  0
    4.1000    2.3460   18.4540 C   0  0  0  0  0  0  0  0  0  0  0  0
    4.6500    2.0480   17.2000 C   0  0  0  0  0  0  0  0  0  0  0  0
    5.5580    1.0640   17.0070 N   0  0  0  0  0  0  0  0  0  0  0  0
    5.9860    0.3990   18.0980 C   0  0  0  0  0  0  0  0  0  0  0  0
    9.1340    0.1230   23.8270 C   0  0  0  0  0  0  0  0  0  0  0  0
   10.4290    0.4360   24.2640 C   0  0  0  0  0  0  0  0  0  0  0  0
  1  2  2  0
  2  3  1  0
  2  4  1  0
  4  5  1  0
  5  6  1  0
  6  7  1  0
  7  8  1  0
  8 23  2  0
  8  9  1  0
  9 10  2  0
 10 11  1  0
 11 12  1  0
 11 22  2  0
 12 13  1  0
 13 14  2  0
 13 15  1  0
 15 16  1  0
 16 17  2  0
 16 21  1  0
 17 18  1  0
 18 19  2  0
 19 20  1  0
 20 21  2  0
 22 23  1  0
M  END
>  <original SMILES>  (421) 
O=C(O)CNCCc1ccc(NC(=O)Nc2cccnc2)cc1

>  <AutoDock Predicted Affinity>  (421) 
-5.51154

>  <ref_pdb>  (421) 
x0434_0

>  <ref_mols>  (421) 
x0434_0

>  <creator>  (421) 
Will Poole

>  <energy minimised>  (421) 
True

$$$$
WPC0811_minimised.pdb
     RDKit          3D

 24 25  0  0  0  0  0  0  0  0999 V2000
   13.7220    6.0530   21.3080 O   0  0  0  0  0  0  0  0  0  0  0  0
   14.0440    4.9220   21.6070 C   0  0  0  0  0  0  0  0  0  0  0  0
   14.7070    4.1480   20.7310 O   0  0  0  0  0  0  0  0  0  0  0  0
   14.0560    4.4460   23.0620 C   0  0  0  0  0  0  0  0  0  0  0  0
   13.4630    3.1400   23.3240 O   0  0  0  0  0  0  0  0  0  0  0  0
   14.0970    2.0030   22.9140 C   0  0  0  0  0  0  0  0  0  0  0  0
   15.1060    2.0260   22.2360 O   0  0  0  0  0  0  0  0  0  0  0  0
   13.5490    0.7250   23.5410 C   0  0  0  0  0  0  0  0  0  0  0  0
   12.0940    0.4330   23.2180 C   0  0  0  0  0  0  0  0  0  0  0  0
   11.7600   -0.6260   22.3560 C   0  0  0  0  0  0  0  0  0  0  0  0
   10.4200   -0.8550   22.0140 C   0  0  0  0  0  0  0  0  0  0  0  0
    9.4110   -0.0440   22.5520 C   0  0  0  0  0  0  0  0  0  0  0  0
    8.0840   -0.1710   22.1050 N   0  0  0  0  0  0  0  0  0  0  0  0
    7.6990    0.0370   20.8110 C   0  0  0  0  0  0  0  0  0  0  0  0
    8.4690    0.1640   19.8790 O   0  0  0  0  0  0  0  0  0  0  0  0
    6.3440    0.1390   20.6740 N   0  0  0  0  0  0  0  0  0  0  0  0
    5.6840    0.6620   19.5390 C   0  0  0  0  0  0  0  0  0  0  0  0
    4.7110    1.6500   19.7270 C   0  0  0  0  0  0  0  0  0  0  0  0
    4.1700    2.2550   18.5880 C   0  0  0  0  0  0  0  0  0  0  0  0
    4.6230    1.8700   17.3180 C   0  0  0  0  0  0  0  0  0  0  0  0
    5.5220    0.8780   17.1240 N   0  0  0  0  0  0  0  0  0  0  0  0
    6.0530    0.3050   18.2230 C   0  0  0  0  0  0  0  0  0  0  0  0
    9.7340    0.9680   23.4660 C   0  0  0  0  0  0  0  0  0  0  0  0
   11.0740    1.2060   23.8010 C   0  0  0  0  0  0  0  0  0  0  0  0
  1  2  2  0
  2  3  1  0
  2  4  1  0
  4  5  1  0
  5  6  1  0
  6  7  2  0
  6  8  1  0
  8  9  1  0
  9 24  2  0
  9 10  1  0
 10 11  2  0
 11 12  1  0
 12 13  1  0
 12 23  2  0
 13 14  1  0
 14 15  2  0
 14 16  1  0
 16 17  1  0
 17 18  2  0
 17 22  1  0
 18 19  1  0
 19 20  2  0
 20 21  1  0
 21 22  2  0
 23 24  1  0
M  END
>  <original SMILES>  (422) 
O=C(O)COC(=O)Cc1ccc(NC(=O)Nc2cccnc2)cc1

>  <AutoDock Predicted Affinity>  (422) 
-6.06887

>  <ref_pdb>  (422) 
x0434_0

>  <ref_mols>  (422) 
x0434_0

>  <creator>  (422) 
Will Poole

>  <energy minimised>  (422) 
True

$$$$
WPC0546_minimised.pdb
     RDKit          3D

 23 24  0  0  0  0  0  0  0  0999 V2000
   13.0740    4.8210   21.2470 O   0  0  0  0  0  0  0  0  0  0  0  0
   13.4570    5.3790   22.2500 C   0  0  0  0  0  0  0  0  0  0  0  0
   14.4040    6.3300   22.1770 O   0  0  0  0  0  0  0  0  0  0  0  0
   12.8320    5.2290   23.6410 C   0  0  0  0  0  0  0  0  0  0  0  0
   12.0010    3.6050   23.9570 S   0  0  0  0  0  0  0  0  0  0  0  0
   13.2400    2.4380   23.2430 C   0  0  0  0  0  0  0  0  0  0  0  0
   13.1390    0.9940   23.7800 C   0  0  0  0  0  0  0  0  0  0  0  0
   11.8170    0.3490   23.4310 C   0  0  0  0  0  0  0  0  0  0  0  0
   11.7120   -0.4460   22.2790 C   0  0  0  0  0  0  0  0  0  0  0  0
   10.4550   -0.8990   21.8640 C   0  0  0  0  0  0  0  0  0  0  0  0
    9.3030   -0.5380   22.5780 C   0  0  0  0  0  0  0  0  0  0  0  0
    8.0230   -0.7310   22.0240 N   0  0  0  0  0  0  0  0  0  0  0  0
    7.6850   -0.3710   20.7460 C   0  0  0  0  0  0  0  0  0  0  0  0
    8.4760   -0.1570   19.8470 O   0  0  0  0  0  0  0  0  0  0  0  0
    6.3380   -0.2140   20.5910 N   0  0  0  0  0  0  0  0  0  0  0  0
    5.7250    0.4320   19.4940 C   0  0  0  0  0  0  0  0  0  0  0  0
    4.7880    1.4430   19.7390 C   0  0  0  0  0  0  0  0  0  0  0  0
    4.2920    2.1500   18.6370 C   0  0  0  0  0  0  0  0  0  0  0  0
    4.7550    1.8420   17.3500 C   0  0  0  0  0  0  0  0  0  0  0  0
    5.6280    0.8400   17.1020 N   0  0  0  0  0  0  0  0  0  0  0  0
    6.1120    0.1650   18.1630 C   0  0  0  0  0  0  0  0  0  0  0  0
    9.4190    0.1660   23.7850 C   0  0  0  0  0  0  0  0  0  0  0  0
   10.6790    0.6000   24.2190 C   0  0  0  0  0  0  0  0  0  0  0  0
  1  2  2  0
  2  3  1  0
  2  4  1  0
  4  5  1  0
  5  6  1  0
  6  7  1  0
  7  8  1  0
  8 23  2  0
  8  9  1  0
  9 10  2  0
 10 11  1  0
 11 12  1  0
 11 22  2  0
 12 13  1  0
 13 14  2  0
 13 15  1  0
 15 16  1  0
 16 17  2  0
 16 21  1  0
 17 18  1  0
 18 19  2  0
 19 20  1  0
 20 21  2  0
 22 23  1  0
M  END
>  <original SMILES>  (423) 
O=C(O)CSCCc1ccc(NC(=O)Nc2cccnc2)cc1

>  <AutoDock Predicted Affinity>  (423) 
-5.87742

>  <ref_pdb>  (423) 
x0434_0

>  <ref_mols>  (423) 
x0434_0

>  <creator>  (423) 
Will Poole

>  <energy minimised>  (423) 
True

$$$$
WPC0393_minimised.pdb
     RDKit          3D

 22 23  0  0  0  0  0  0  0  0999 V2000
   13.0720    5.1710   24.0640 O   0  0  0  0  0  0  0  0  0  0  0  0
   12.6460    4.6240   23.0670 C   0  0  0  0  0  0  0  0  0  0  0  0
   12.5800    5.2540   21.8860 O   0  0  0  0  0  0  0  0  0  0  0  0
   12.2670    3.1550   23.0420 C   0  0  0  0  0  0  0  0  0  0  0  0
   13.7630    2.1240   22.6870 S   0  0  0  0  0  0  0  0  0  0  0  0
   13.3800    0.5610   23.5760 C   0  0  0  0  0  0  0  0  0  0  0  0
   11.9810    0.0850   23.2600 C   0  0  0  0  0  0  0  0  0  0  0  0
   11.7490   -0.6160   22.0690 C   0  0  0  0  0  0  0  0  0  0  0  0
   10.4370   -0.9370   21.7020 C   0  0  0  0  0  0  0  0  0  0  0  0
    9.3570   -0.5270   22.4960 C   0  0  0  0  0  0  0  0  0  0  0  0
    8.0420   -0.6040   21.9940 N   0  0  0  0  0  0  0  0  0  0  0  0
    7.6780   -0.1690   20.7480 C   0  0  0  0  0  0  0  0  0  0  0  0
    8.4620    0.1570   19.8760 O   0  0  0  0  0  0  0  0  0  0  0  0
    6.3240   -0.0900   20.5810 N   0  0  0  0  0  0  0  0  0  0  0  0
    5.6950    0.5290   19.4760 C   0  0  0  0  0  0  0  0  0  0  0  0
    4.7250    1.5130   19.7050 C   0  0  0  0  0  0  0  0  0  0  0  0
    4.2330    2.2100   18.5950 C   0  0  0  0  0  0  0  0  0  0  0  0
    4.7340    1.9220   17.3170 C   0  0  0  0  0  0  0  0  0  0  0  0
    5.6330    0.9390   17.0820 N   0  0  0  0  0  0  0  0  0  0  0  0
    6.1090    0.2720   18.1510 C   0  0  0  0  0  0  0  0  0  0  0  0
    9.5920    0.0920   23.7310 C   0  0  0  0  0  0  0  0  0  0  0  0
   10.9070    0.3840   24.1210 C   0  0  0  0  0  0  0  0  0  0  0  0
  1  2  2  0
  2  3  1  0
  2  4  1  0
  4  5  1  0
  5  6  1  0
  6  7  1  0
  7 22  2  0
  7  8  1  0
  8  9  2  0
  9 10  1  0
 10 11  1  0
 10 21  2  0
 11 12  1  0
 12 13  2  0
 12 14  1  0
 14 15  1  0
 15 16  2  0
 15 20  1  0
 16 17  1  0
 17 18  2  0
 18 19  1  0
 19 20  2  0
 21 22  1  0
M  END
>  <original SMILES>  (424) 
O=C(O)CSCc1ccc(NC(=O)Nc2cccnc2)cc1

>  <AutoDock Predicted Affinity>  (424) 
-5.88818

>  <ref_pdb>  (424) 
x0434_0

>  <ref_mols>  (424) 
x0434_0

>  <creator>  (424) 
Will Poole

>  <energy minimised>  (424) 
True

$$$$
WPC0587_minimised.pdb
     RDKit          3D

 21 22  0  0  0  0  0  0  0  0999 V2000
   12.7730    5.2300   24.2620 O   0  0  0  0  0  0  0  0  0  0  0  0
   12.3710    4.8800   23.1710 C   0  0  0  0  0  0  0  0  0  0  0  0
   11.1280    5.1920   22.7590 O   0  0  0  0  0  0  0  0  0  0  0  0
   13.2420    4.1310   22.1740 C   0  0  0  0  0  0  0  0  0  0  0  0
   13.7890    2.4830   22.8180 S   0  0  0  0  0  0  0  0  0  0  0  0
   12.3000    1.5160   22.8440 C   0  0  0  0  0  0  0  0  0  0  0  0
   12.1950    0.4130   21.9850 C   0  0  0  0  0  0  0  0  0  0  0  0
   10.9630   -0.2410   21.8390 C   0  0  0  0  0  0  0  0  0  0  0  0
    9.8400    0.2110   22.5520 C   0  0  0  0  0  0  0  0  0  0  0  0
    8.5470   -0.2220   22.1920 N   0  0  0  0  0  0  0  0  0  0  0  0
    8.0450   -0.0500   20.9290 C   0  0  0  0  0  0  0  0  0  0  0  0
    8.7350    0.2190   19.9640 O   0  0  0  0  0  0  0  0  0  0  0  0
    6.6820   -0.1210   20.8430 N   0  0  0  0  0  0  0  0  0  0  0  0
    5.9500    0.3910   19.7420 C   0  0  0  0  0  0  0  0  0  0  0  0
    4.9950    1.3890   19.9710 C   0  0  0  0  0  0  0  0  0  0  0  0
    4.4240    2.0150   18.8560 C   0  0  0  0  0  0  0  0  0  0  0  0
    4.8340    1.6440   17.5680 C   0  0  0  0  0  0  0  0  0  0  0  0
    5.7150    0.6440   17.3350 N   0  0  0  0  0  0  0  0  0  0  0  0
    6.2700    0.0470   18.4100 C   0  0  0  0  0  0  0  0  0  0  0  0
    9.9760    1.2400   23.4970 C   0  0  0  0  0  0  0  0  0  0  0  0
   11.2100    1.8890   23.6490 C   0  0  0  0  0  0  0  0  0  0  0  0
  1  2  2  0
  2  3  1  0
  2  4  1  0
  4  5  1  0
  5  6  1  0
  6 21  2  0
  6  7  1  0
  7  8  2  0
  8  9  1  0
  9 10  1  0
  9 20  2  0
 10 11  1  0
 11 12  2  0
 11 13  1  0
 13 14  1  0
 14 15  2  0
 14 19  1  0
 15 16  1  0
 16 17  2  0
 17 18  1  0
 18 19  2  0
 20 21  1  0
M  END
>  <original SMILES>  (425) 
O=C(O)CSc1ccc(NC(=O)Nc2cccnc2)cc1

>  <AutoDock Predicted Affinity>  (425) 
-5.693297

>  <ref_pdb>  (425) 
x0434_0

>  <ref_mols>  (425) 
x0434_0

>  <creator>  (425) 
Will Poole

>  <energy minimised>  (425) 
True

$$$$
WPC1047_minimised.pdb
     RDKit          3D

 20 21  0  0  0  0  0  0  0  0999 V2000
   14.2690    4.3310   23.5100 O   0  0  0  0  0  0  0  0  0  0  0  0
   13.4100    3.6230   23.0230 C   0  0  0  0  0  0  0  0  0  0  0  0
   12.3150    4.1760   22.4750 O   0  0  0  0  0  0  0  0  0  0  0  0
   13.4150    2.0870   23.1380 C   0  0  0  0  0  0  0  0  0  0  0  0
   12.0700    1.4090   22.9470 C   0  0  0  0  0  0  0  0  0  0  0  0
   11.9360    0.4020   21.9790 C   0  0  0  0  0  0  0  0  0  0  0  0
   10.6850   -0.1850   21.7530 C   0  0  0  0  0  0  0  0  0  0  0  0
    9.5630    0.2470   22.4770 C   0  0  0  0  0  0  0  0  0  0  0  0
    8.2670   -0.1500   22.0900 N   0  0  0  0  0  0  0  0  0  0  0  0
    7.7960   -0.0070   20.8120 C   0  0  0  0  0  0  0  0  0  0  0  0
    8.5030    0.2040   19.8450 O   0  0  0  0  0  0  0  0  0  0  0  0
    6.4330   -0.0390   20.7240 N   0  0  0  0  0  0  0  0  0  0  0  0
    5.7190    0.4820   19.6190 C   0  0  0  0  0  0  0  0  0  0  0  0
    4.7740    1.4900   19.8420 C   0  0  0  0  0  0  0  0  0  0  0  0
    4.2220    2.1240   18.7230 C   0  0  0  0  0  0  0  0  0  0  0  0
    4.6370    1.7460   17.4370 C   0  0  0  0  0  0  0  0  0  0  0  0
    5.5090    0.7380   17.2110 N   0  0  0  0  0  0  0  0  0  0  0  0
    6.0480    0.1340   18.2900 C   0  0  0  0  0  0  0  0  0  0  0  0
    9.7130    1.1900   23.5040 C   0  0  0  0  0  0  0  0  0  0  0  0
   10.9700    1.7600   23.7510 C   0  0  0  0  0  0  0  0  0  0  0  0
  1  2  2  0
  2  3  1  0
  2  4  1  0
  4  5  1  0
  5 20  2  0
  5  6  1  0
  6  7  2  0
  7  8  1  0
  8  9  1  0
  8 19  2  0
  9 10  1  0
 10 11  2  0
 10 12  1  0
 12 13  1  0
 13 14  2  0
 13 18  1  0
 14 15  1  0
 15 16  2  0
 16 17  1  0
 17 18  2  0
 19 20  1  0
M  END
>  <original SMILES>  (426) 
O=C(O)Cc1ccc(NC(=O)Nc2cccnc2)cc1

>  <AutoDock Predicted Affinity>  (426) 
-5.820865

>  <ref_pdb>  (426) 
x0434_0

>  <ref_mols>  (426) 
x0434_0

>  <creator>  (426) 
Will Poole

>  <energy minimised>  (426) 
True

$$$$
WPC0402_minimised.pdb
     RDKit          3D

 22 23  0  0  0  0  0  0  0  0999 V2000
   13.0330    4.8870   24.0350 O   0  0  0  0  0  0  0  0  0  0  0  0
   12.3610    4.5820   23.0720 C   0  0  0  0  0  0  0  0  0  0  0  0
   11.2600    5.2510   22.7250 O   0  0  0  0  0  0  0  0  0  0  0  0
   12.6260    3.5170   22.2560 N   0  0  0  0  0  0  0  0  0  0  0  0
   13.7790    2.6140   22.4370 C   0  0  0  0  0  0  0  0  0  0  0  0
   13.4710    1.3100   23.2090 C   0  0  0  0  0  0  0  0  0  0  0  0
   12.0980    0.7360   22.9400 C   0  0  0  0  0  0  0  0  0  0  0  0
   11.9110   -0.2570   21.9650 C   0  0  0  0  0  0  0  0  0  0  0  0
   10.6170   -0.7210   21.6920 C   0  0  0  0  0  0  0  0  0  0  0  0
    9.5150   -0.1840   22.3740 C   0  0  0  0  0  0  0  0  0  0  0  0
    8.2050   -0.4590   21.9390 N   0  0  0  0  0  0  0  0  0  0  0  0
    7.7740   -0.1650   20.6750 C   0  0  0  0  0  0  0  0  0  0  0  0
    8.5170    0.1090   19.7520 O   0  0  0  0  0  0  0  0  0  0  0  0
    6.4120   -0.1300   20.5600 N   0  0  0  0  0  0  0  0  0  0  0  0
    5.7340    0.4690   19.4730 C   0  0  0  0  0  0  0  0  0  0  0  0
    4.7740    1.4560   19.7310 C   0  0  0  0  0  0  0  0  0  0  0  0
    4.2490    2.1540   18.6370 C   0  0  0  0  0  0  0  0  0  0  0  0
    4.7110    1.8670   17.3450 C   0  0  0  0  0  0  0  0  0  0  0  0
    5.5980    0.8810   17.0830 N   0  0  0  0  0  0  0  0  0  0  0  0
    6.1030    0.2090   18.1360 C   0  0  0  0  0  0  0  0  0  0  0  0
    9.7070    0.7590   23.3910 C   0  0  0  0  0  0  0  0  0  0  0  0
   11.0000    1.2110   23.6810 C   0  0  0  0  0  0  0  0  0  0  0  0
  1  2  2  0
  2  3  1  0
  2  4  1  0
  4  5  1  0
  5  6  1  0
  6  7  1  0
  7 22  2  0
  7  8  1  0
  8  9  2  0
  9 10  1  0
 10 11  1  0
 10 21  2  0
 11 12  1  0
 12 13  2  0
 12 14  1  0
 14 15  1  0
 15 16  2  0
 15 20  1  0
 16 17  1  0
 17 18  2  0
 18 19  1  0
 19 20  2  0
 21 22  1  0
M  END
>  <original SMILES>  (427) 
O=C(O)NCCc1ccc(NC(=O)Nc2cccnc2)cc1

>  <AutoDock Predicted Affinity>  (427) 
-6.65612

>  <ref_pdb>  (427) 
x0434_0

>  <ref_mols>  (427) 
x0434_0

>  <creator>  (427) 
Will Poole

>  <energy minimised>  (427) 
True

$$$$
WPC0618_minimised.pdb
     RDKit          3D

 24 26  0  0  0  0  0  0  0  0999 V2000
    8.6240    0.3000   19.9830 O   0  0  0  0  0  0  0  0  0  0  0  0
    7.9060   -0.0290   20.9070 C   0  0  0  0  0  0  0  0  0  0  0  0
    8.3540   -0.3570   22.1590 N   0  0  0  0  0  0  0  0  0  0  0  0
    9.6820   -0.1780   22.6040 C   0  0  0  0  0  0  0  0  0  0  0  0
   10.7590   -0.6020   21.8100 C   0  0  0  0  0  0  0  0  0  0  0  0
   12.0720   -0.2510   22.1500 C   0  0  0  0  0  0  0  0  0  0  0  0
   12.3060    0.5080   23.3050 C   0  0  0  0  0  0  0  0  0  0  0  0
   13.9460    1.0790   23.6550 S   0  0  0  0  0  0  0  0  0  0  0  0
   14.1720    2.5440   22.5520 C   0  0  0  0  0  0  0  0  0  0  0  0
   12.9730    3.4570   22.6910 C   0  0  0  0  0  0  0  0  0  0  0  0
   13.0440    4.7310   23.4960 C   0  0  0  0  0  0  0  0  0  0  0  0
   11.6230    5.2050   23.3150 C   0  0  0  0  0  0  0  0  0  0  0  0
   11.1060    6.1810   23.8240 O   0  0  0  0  0  0  0  0  0  0  0  0
   11.0360    4.3250   22.4520 N   0  0  0  0  0  0  0  0  0  0  0  0
   11.8660    3.3140   22.0660 N   0  0  0  0  0  0  0  0  0  0  0  0
   11.2380    0.8640   24.1460 C   0  0  0  0  0  0  0  0  0  0  0  0
    9.9240    0.5230   23.7940 C   0  0  0  0  0  0  0  0  0  0  0  0
    6.5450   -0.0660   20.7890 N   0  0  0  0  0  0  0  0  0  0  0  0
    5.8340    0.4500   19.6790 C   0  0  0  0  0  0  0  0  0  0  0  0
    4.8530    1.4250   19.8960 C   0  0  0  0  0  0  0  0  0  0  0  0
    4.2760    2.0250   18.7710 C   0  0  0  0  0  0  0  0  0  0  0  0
    4.6990    1.6460   17.4890 C   0  0  0  0  0  0  0  0  0  0  0  0
    5.6100    0.6720   17.2690 N   0  0  0  0  0  0  0  0  0  0  0  0
    6.1780    0.1060   18.3530 C   0  0  0  0  0  0  0  0  0  0  0  0
  1  2  2  0
  2  3  1  0
  2 18  1  0
  3  4  1  0
  4  5  2  0
  4 17  1  0
  5  6  1  0
  6  7  2  0
  7  8  1  0
  7 16  1  0
  8  9  1  0
  9 10  1  0
 10 11  1  0
 10 15  2  0
 11 12  1  0
 12 13  2  0
 12 14  1  0
 14 15  1  0
 16 17  2  0
 18 19  1  0
 19 20  2  0
 19 24  1  0
 20 21  1  0
 21 22  2  0
 22 23  1  0
 23 24  2  0
M  END
>  <original SMILES>  (428) 
O=C1CC(CSc2ccc(NC(=O)Nc3cccnc3)cc2)=NN1

>  <AutoDock Predicted Affinity>  (428) 
-5.921625

>  <ref_pdb>  (428) 
x0434_0

>  <ref_mols>  (428) 
x0434_0

>  <creator>  (428) 
Will Poole

>  <energy minimised>  (428) 
True

$$$$
WPC0807_minimised.pdb
     RDKit          3D

 24 26  0  0  0  0  0  0  0  0999 V2000
    8.4970   -0.0090   19.8100 O   0  0  0  0  0  0  0  0  0  0  0  0
    7.7080   -0.2810   20.6960 C   0  0  0  0  0  0  0  0  0  0  0  0
    8.0560   -0.6290   21.9730 N   0  0  0  0  0  0  0  0  0  0  0  0
    9.3240   -0.3710   22.5270 C   0  0  0  0  0  0  0  0  0  0  0  0
   10.4910   -0.7230   21.8340 C   0  0  0  0  0  0  0  0  0  0  0  0
   11.7310   -0.2210   22.2460 C   0  0  0  0  0  0  0  0  0  0  0  0
   11.8020    0.6230   23.3660 C   0  0  0  0  0  0  0  0  0  0  0  0
   13.1130    1.2820   23.7210 C   0  0  0  0  0  0  0  0  0  0  0  0
   13.3510    2.9160   22.8850 S   0  0  0  0  0  0  0  0  0  0  0  0
   12.3670    4.0960   23.7370 C   0  0  0  0  0  0  0  0  0  0  0  0
   11.0880    4.0040   24.2320 N   0  0  0  0  0  0  0  0  0  0  0  0
   10.8790    5.1580   24.8080 N   0  0  0  0  0  0  0  0  0  0  0  0
   12.0000    5.9740   24.7300 C   0  0  0  0  0  0  0  0  0  0  0  0
   12.1460    7.0950   25.1760 O   0  0  0  0  0  0  0  0  0  0  0  0
   12.9290    5.2350   24.0470 N   0  0  0  0  0  0  0  0  0  0  0  0
   10.6510    0.8660   24.1370 C   0  0  0  0  0  0  0  0  0  0  0  0
    9.4080    0.3810   23.7070 C   0  0  0  0  0  0  0  0  0  0  0  0
    6.3560   -0.1960   20.5290 N   0  0  0  0  0  0  0  0  0  0  0  0
    5.7240    0.4460   19.4410 C   0  0  0  0  0  0  0  0  0  0  0  0
    4.7660    1.4340   19.6980 C   0  0  0  0  0  0  0  0  0  0  0  0
    4.2580    2.1480   18.6050 C   0  0  0  0  0  0  0  0  0  0  0  0
    4.7350    1.8730   17.3160 C   0  0  0  0  0  0  0  0  0  0  0  0
    5.6280    0.8920   17.0550 N   0  0  0  0  0  0  0  0  0  0  0  0
    6.1190    0.2070   18.1070 C   0  0  0  0  0  0  0  0  0  0  0  0
  1  2  2  0
  2  3  1  0
  2 18  1  0
  3  4  1  0
  4  5  2  0
  4 17  1  0
  5  6  1  0
  6  7  2  0
  7  8  1  0
  7 16  1  0
  8  9  1  0
  9 10  1  0
 10 11  1  0
 10 15  2  0
 11 12  2  0
 12 13  1  0
 13 14  2  0
 13 15  1  0
 16 17  2  0
 18 19  1  0
 19 20  2  0
 19 24  1  0
 20 21  1  0
 21 22  2  0
 22 23  1  0
 23 24  2  0
M  END
>  <original SMILES>  (429) 
O=C1N=NC(SCc2ccc(NC(=O)Nc3cccnc3)cc2)=N1

>  <AutoDock Predicted Affinity>  (429) 
-6.30317

>  <ref_pdb>  (429) 
x0434_0

>  <ref_mols>  (429) 
x0434_0

>  <creator>  (429) 
Will Poole

>  <energy minimised>  (429) 
True

$$$$
WPC0777_minimised.pdb
     RDKit          3D

 24 26  0  0  0  0  0  0  0  0999 V2000
    8.4790   -0.2530   19.7300 O   0  0  0  0  0  0  0  0  0  0  0  0
    7.7730   -0.2480   20.7170 C   0  0  0  0  0  0  0  0  0  0  0  0
    8.2250   -0.3310   22.0030 N   0  0  0  0  0  0  0  0  0  0  0  0
    9.5480   -0.0530   22.3880 C   0  0  0  0  0  0  0  0  0  0  0  0
   10.6150   -0.8630   21.9720 C   0  0  0  0  0  0  0  0  0  0  0  0
   11.9340   -0.5040   22.2970 C   0  0  0  0  0  0  0  0  0  0  0  0
   12.1870    0.6750   23.0230 C   0  0  0  0  0  0  0  0  0  0  0  0
   13.6010    1.0970   23.3770 C   0  0  0  0  0  0  0  0  0  0  0  0
   14.1380    2.1350   22.4880 N   0  0  0  0  0  0  0  0  0  0  0  0
   13.8110    3.4610   22.5180 C   0  0  0  0  0  0  0  0  0  0  0  0
   13.1610    3.9990   23.5030 N   0  0  0  0  0  0  0  0  0  0  0  0
   13.0490    5.3360   23.2330 C   0  0  0  0  0  0  0  0  0  0  0  0
   12.4740    6.0740   24.0200 O   0  0  0  0  0  0  0  0  0  0  0  0
   13.6070    5.7780   22.1120 N   0  0  0  0  0  0  0  0  0  0  0  0
   14.2970    4.5670   21.2840 S   0  0  0  0  0  0  0  0  0  0  0  0
   11.1080    1.4640   23.4580 C   0  0  0  0  0  0  0  0  0  0  0  0
    9.7930    1.1010   23.1410 C   0  0  0  0  0  0  0  0  0  0  0  0
    6.4190   -0.0830   20.6560 N   0  0  0  0  0  0  0  0  0  0  0  0
    5.7290    0.4630   19.5500 C   0  0  0  0  0  0  0  0  0  0  0  0
    4.8020    1.4860   19.7860 C   0  0  0  0  0  0  0  0  0  0  0  0
    4.2200    2.1070   18.6750 C   0  0  0  0  0  0  0  0  0  0  0  0
    4.5890    1.7030   17.3850 C   0  0  0  0  0  0  0  0  0  0  0  0
    5.4460    0.6830   17.1460 N   0  0  0  0  0  0  0  0  0  0  0  0
    6.0170    0.0950   18.2170 C   0  0  0  0  0  0  0  0  0  0  0  0
  1  2  2  0
  2  3  1  0
  2 18  1  0
  3  4  1  0
  4  5  2  0
  4 17  1  0
  5  6  1  0
  6  7  2  0
  7  8  1  0
  7 16  1  0
  8  9  1  0
  9 10  1  0
 10 11  2  0
 10 15  1  0
 11 12  1  0
 12 13  2  0
 12 14  1  0
 14 15  2  0
 16 17  2  0
 18 19  1  0
 19 20  2  0
 19 24  1  0
 20 21  1  0
 21 22  2  0
 22 23  1  0
 23 24  2  0
M  END
>  <original SMILES>  (430) 
O=C1N=[SH]C(NCc2ccc(NC(=O)Nc3cccnc3)cc2)=N1

>  <AutoDock Predicted Affinity>  (430) 
-6.40842

>  <ref_pdb>  (430) 
x0434_0

>  <ref_mols>  (430) 
x0434_0

>  <creator>  (430) 
Will Poole

>  <energy minimised>  (430) 
True

$$$$
WPC0765_minimised.pdb
     RDKit          3D

 21 22  0  0  0  0  0  0  0  0999 V2000
   13.5730    5.2880   22.0010 O   0  0  0  0  0  0  0  0  0  0  0  0
   12.5620    4.6990   22.3350 C   0  0  0  0  0  0  0  0  0  0  0  0
   12.5650    3.3840   22.7440 N   0  0  0  0  0  0  0  0  0  0  0  0
   13.7450    2.5120   22.6710 C   0  0  0  0  0  0  0  0  0  0  0  0
   13.5280    1.1290   23.3300 C   0  0  0  0  0  0  0  0  0  0  0  0
   12.1520    0.5510   23.0710 C   0  0  0  0  0  0  0  0  0  0  0  0
   11.9410   -0.3060   21.9820 C   0  0  0  0  0  0  0  0  0  0  0  0
   10.6430   -0.7430   21.6900 C   0  0  0  0  0  0  0  0  0  0  0  0
    9.5540   -0.3030   22.4580 C   0  0  0  0  0  0  0  0  0  0  0  0
    8.2360   -0.5250   22.0130 N   0  0  0  0  0  0  0  0  0  0  0  0
    7.7990   -0.1920   20.7580 C   0  0  0  0  0  0  0  0  0  0  0  0
    8.5340    0.1100   19.8370 O   0  0  0  0  0  0  0  0  0  0  0  0
    6.4380   -0.1670   20.6440 N   0  0  0  0  0  0  0  0  0  0  0  0
    5.7520    0.4230   19.5570 C   0  0  0  0  0  0  0  0  0  0  0  0
    4.7970    1.4150   19.8110 C   0  0  0  0  0  0  0  0  0  0  0  0
    4.2600    2.0960   18.7120 C   0  0  0  0  0  0  0  0  0  0  0  0
    4.7000    1.7820   17.4180 C   0  0  0  0  0  0  0  0  0  0  0  0
    5.5830    0.7910   17.1610 N   0  0  0  0  0  0  0  0  0  0  0  0
    6.1070    0.1420   18.2200 C   0  0  0  0  0  0  0  0  0  0  0  0
    9.7730    0.4860   23.5940 C   0  0  0  0  0  0  0  0  0  0  0  0
   11.0740    0.9030   23.9080 C   0  0  0  0  0  0  0  0  0  0  0  0
  1  2  2  0
  2  3  1  0
  3  4  1  0
  4  5  1  0
  5  6  1  0
  6 21  2  0
  6  7  1  0
  7  8  2  0
  8  9  1  0
  9 10  1  0
  9 20  2  0
 10 11  1  0
 11 12  2  0
 11 13  1  0
 13 14  1  0
 14 15  2  0
 14 19  1  0
 15 16  1  0
 16 17  2  0
 17 18  1  0
 18 19  2  0
 20 21  1  0
M  END
>  <original SMILES>  (431) 
O=CNCCc1ccc(NC(=O)Nc2cccnc2)cc1

>  <AutoDock Predicted Affinity>  (431) 
-5.77713

>  <ref_pdb>  (431) 
x0434_0

>  <ref_mols>  (431) 
x0434_0

>  <creator>  (431) 
Will Poole

>  <energy minimised>  (431) 
True

$$$$
WPC0576_minimised.pdb
     RDKit          3D

 20 21  0  0  0  0  0  0  0  0999 V2000
   14.2800    4.5520   22.6730 O   0  0  0  0  0  0  0  0  0  0  0  0
   13.8620    3.4470   22.3860 C   0  0  0  0  0  0  0  0  0  0  0  0
   14.5800    2.3530   22.7850 N   0  0  0  0  0  0  0  0  0  0  0  0
   14.2370    0.9440   22.5840 C   0  0  0  0  0  0  0  0  0  0  0  0
   12.7570    0.6020   22.6160 C   0  0  0  0  0  0  0  0  0  0  0  0
   12.2910   -0.4230   21.7770 C   0  0  0  0  0  0  0  0  0  0  0  0
   10.9230   -0.7150   21.7190 C   0  0  0  0  0  0  0  0  0  0  0  0
   10.0090    0.0280   22.4780 C   0  0  0  0  0  0  0  0  0  0  0  0
    8.6280   -0.0950   22.2150 N   0  0  0  0  0  0  0  0  0  0  0  0
    8.0940    0.1060   20.9690 C   0  0  0  0  0  0  0  0  0  0  0  0
    8.7690    0.2850   19.9750 O   0  0  0  0  0  0  0  0  0  0  0  0
    6.7260    0.1280   20.9260 N   0  0  0  0  0  0  0  0  0  0  0  0
    5.9860    0.5710   19.8000 C   0  0  0  0  0  0  0  0  0  0  0  0
    5.0170    1.5650   19.9780 C   0  0  0  0  0  0  0  0  0  0  0  0
    4.4320    2.1150   18.8310 C   0  0  0  0  0  0  0  0  0  0  0  0
    4.8440    1.6790   17.5640 C   0  0  0  0  0  0  0  0  0  0  0  0
    5.7270    0.6730   17.3810 N   0  0  0  0  0  0  0  0  0  0  0  0
    6.2940    0.1460   18.4870 C   0  0  0  0  0  0  0  0  0  0  0  0
   10.4730    0.9940   23.3810 C   0  0  0  0  0  0  0  0  0  0  0  0
   11.8480    1.2720   23.4590 C   0  0  0  0  0  0  0  0  0  0  0  0
  1  2  2  0
  2  3  1  0
  3  4  1  0
  4  5  1  0
  5 20  2  0
  5  6  1  0
  6  7  2  0
  7  8  1  0
  8  9  1  0
  8 19  2  0
  9 10  1  0
 10 11  2  0
 10 12  1  0
 12 13  1  0
 13 14  2  0
 13 18  1  0
 14 15  1  0
 15 16  2  0
 16 17  1  0
 17 18  2  0
 19 20  1  0
M  END
>  <original SMILES>  (432) 
O=CNCc1ccc(NC(=O)Nc2cccnc2)cc1

>  <AutoDock Predicted Affinity>  (432) 
-5.66023

>  <ref_pdb>  (432) 
x0434_0

>  <ref_mols>  (432) 
x0434_0

>  <creator>  (432) 
Will Poole

>  <energy minimised>  (432) 
True

$$$$
WPC1063_minimised.pdb
     RDKit          3D

 20 21  0  0  0  0  0  0  0  0999 V2000
   14.6580    4.4090   22.9390 O   0  0  0  0  0  0  0  0  0  0  0  0
   14.5960    3.2360   22.6210 C   0  0  0  0  0  0  0  0  0  0  0  0
   13.5590    2.4520   23.0100 O   0  0  0  0  0  0  0  0  0  0  0  0
   13.6880    1.0220   22.9780 C   0  0  0  0  0  0  0  0  0  0  0  0
   12.2820    0.4570   22.8900 C   0  0  0  0  0  0  0  0  0  0  0  0
   11.9910   -0.5890   21.9950 C   0  0  0  0  0  0  0  0  0  0  0  0
   10.6610   -0.9890   21.7990 C   0  0  0  0  0  0  0  0  0  0  0  0
    9.6200   -0.3420   22.4790 C   0  0  0  0  0  0  0  0  0  0  0  0
    8.2790   -0.5490   22.0960 N   0  0  0  0  0  0  0  0  0  0  0  0
    7.8230   -0.3070   20.8270 C   0  0  0  0  0  0  0  0  0  0  0  0
    8.5440   -0.1630   19.8610 O   0  0  0  0  0  0  0  0  0  0  0  0
    6.4640   -0.1740   20.7510 N   0  0  0  0  0  0  0  0  0  0  0  0
    5.7840    0.4080   19.6520 C   0  0  0  0  0  0  0  0  0  0  0  0
    4.8560    1.4280   19.8950 C   0  0  0  0  0  0  0  0  0  0  0  0
    4.3090    2.0900   18.7880 C   0  0  0  0  0  0  0  0  0  0  0  0
    4.7160    1.7300   17.4950 C   0  0  0  0  0  0  0  0  0  0  0  0
    5.5750    0.7150   17.2490 N   0  0  0  0  0  0  0  0  0  0  0  0
    6.1050    0.0820   18.3150 C   0  0  0  0  0  0  0  0  0  0  0  0
    9.9120    0.6410   23.4320 C   0  0  0  0  0  0  0  0  0  0  0  0
   11.2400    1.0370   23.6400 C   0  0  0  0  0  0  0  0  0  0  0  0
  1  2  2  0
  2  3  1  0
  3  4  1  0
  4  5  1  0
  5 20  2  0
  5  6  1  0
  6  7  2  0
  7  8  1  0
  8  9  1  0
  8 19  2  0
  9 10  1  0
 10 11  2  0
 10 12  1  0
 12 13  1  0
 13 14  2  0
 13 18  1  0
 14 15  1  0
 15 16  2  0
 16 17  1  0
 17 18  2  0
 19 20  1  0
M  END
>  <original SMILES>  (433) 
O=COCc1ccc(NC(=O)Nc2cccnc2)cc1

>  <AutoDock Predicted Affinity>  (433) 
-5.50463

>  <ref_pdb>  (433) 
x0434_0

>  <ref_mols>  (433) 
x0434_0

>  <creator>  (433) 
Will Poole

>  <energy minimised>  (433) 
True

$$$$
WPC2689_minimised.pdb
     RDKit          3D

 22 23  0  0  1  0  0  0  0  0999 V2000
   16.0890    1.4010   19.7900 C   0  0  0  0  0  0  0  0  0  0  0  0
   15.2030    0.4960   20.2100 C   0  0  0  0  0  0  0  0  0  0  0  0
   14.1740    0.7400   21.3030 C   0  0  0  0  0  0  0  0  0  0  0  0
   13.2090   -0.4580   21.5370 C   0  0  2  0  0  0  0  0  0  0  0  0
   13.9680   -1.6170   22.1830 C   0  0  0  0  0  0  0  0  0  0  0  0
   12.7870   -0.9440   20.2700 O   0  0  0  0  0  0  0  0  0  0  0  0
   11.9950   -0.0560   22.3910 C   0  0  0  0  0  0  0  0  0  0  0  0
   10.6810   -0.3830   21.9900 C   0  0  0  0  0  0  0  0  0  0  0  0
    9.5680    0.0720   22.7120 C   0  0  0  0  0  0  0  0  0  0  0  0
   12.1620    0.6720   23.5890 C   0  0  0  0  0  0  0  0  0  0  0  0
   11.0450    1.0830   24.3380 C   0  0  0  0  0  0  0  0  0  0  0  0
    8.2630   -0.1100   22.2120 N   0  0  0  0  0  0  0  0  0  0  0  0
    9.7500    0.7910   23.8970 C   0  0  0  0  0  0  0  0  0  0  0  0
    7.8740    0.1650   20.9290 C   0  0  0  0  0  0  0  0  0  0  0  0
    8.6400    0.4260   20.0200 O   0  0  0  0  0  0  0  0  0  0  0  0
    6.5160    0.1530   20.7750 N   0  0  0  0  0  0  0  0  0  0  0  0
    5.8270    0.6390   19.6400 C   0  0  0  0  0  0  0  0  0  0  0  0
    6.1900    0.2660   18.3270 C   0  0  0  0  0  0  0  0  0  0  0  0
    4.8240    1.5970   19.8230 C   0  0  0  0  0  0  0  0  0  0  0  0
    5.6150    0.7880   17.2230 N   0  0  0  0  0  0  0  0  0  0  0  0
    4.2440    2.1580   18.6790 C   0  0  0  0  0  0  0  0  0  0  0  0
    4.6830    1.7510   17.4110 C   0  0  0  0  0  0  0  0  0  0  0  0
  1  2  2  0
  2  3  1  0
  4  3  1  0
  4  5  1  1
  4  6  1  0
  4  7  1  0
  7 10  2  0
  7  8  1  0
  8  9  2  0
  9 12  1  0
  9 13  1  0
 10 11  1  0
 11 13  2  0
 12 14  1  0
 14 15  2  0
 14 16  1  0
 16 17  1  0
 17 18  2  0
 17 19  1  0
 18 20  1  0
 19 21  2  0
 20 22  2  0
 21 22  1  0
M  END
>  <original SMILES>  (434) 
C=CCC(C)(O)c1cccc(NC(=O)Nc2cccnc2)c1

>  <AutoDock Predicted Affinity>  (434) 
-6.1819

>  <ref_pdb>  (434) 
x0434_0

>  <ref_mols>  (434) 
x0434_0

>  <creator>  (434) 
Will Poole

>  <energy minimised>  (434) 
True

$$$$
WPC2916_minimised.pdb
     RDKit          3D

 21 22  0  0  1  0  0  0  0  0999 V2000
   15.4320    0.3830   20.0320 C   0  0  0  0  0  0  0  0  0  0  0  0
   14.4790   -0.4970   20.3480 C   0  0  0  0  0  0  0  0  0  0  0  0
   13.1720   -0.1170   21.0060 C   0  0  0  0  0  0  0  0  0  0  0  0
   13.0240   -0.6660   22.4320 C   0  0  2  0  0  0  0  0  0  0  0  0
   13.0880   -2.0830   22.4140 O   0  0  0  0  0  0  0  0  0  0  0  0
   11.7090   -0.2340   23.0640 C   0  0  0  0  0  0  0  0  0  0  0  0
   10.4800   -0.4870   22.4240 C   0  0  0  0  0  0  0  0  0  0  0  0
    9.2800   -0.0340   22.9910 C   0  0  0  0  0  0  0  0  0  0  0  0
   11.7140    0.4570   24.2870 C   0  0  0  0  0  0  0  0  0  0  0  0
   10.5080    0.8620   24.8790 C   0  0  0  0  0  0  0  0  0  0  0  0
    8.0510   -0.1770   22.3180 N   0  0  0  0  0  0  0  0  0  0  0  0
    9.2910    0.6190   24.2300 C   0  0  0  0  0  0  0  0  0  0  0  0
    7.8060    0.1380   21.0100 C   0  0  0  0  0  0  0  0  0  0  0  0
    8.6490    0.4030   20.1740 O   0  0  0  0  0  0  0  0  0  0  0  0
    6.4650    0.1620   20.7560 N   0  0  0  0  0  0  0  0  0  0  0  0
    5.8460    0.6820   19.5990 C   0  0  0  0  0  0  0  0  0  0  0  0
    6.2600    0.3260   18.2970 C   0  0  0  0  0  0  0  0  0  0  0  0
    4.8340    1.6360   19.7570 C   0  0  0  0  0  0  0  0  0  0  0  0
    5.7150    0.8530   17.1800 N   0  0  0  0  0  0  0  0  0  0  0  0
    4.2900    2.2050   18.6000 C   0  0  0  0  0  0  0  0  0  0  0  0
    4.7700    1.8080   17.3450 C   0  0  0  0  0  0  0  0  0  0  0  0
  1  2  2  0
  2  3  1  0
  3  4  1  0
  4  5  1  6
  4  6  1  0
  6  9  2  0
  6  7  1  0
  7  8  2  0
  8 11  1  0
  8 12  1  0
  9 10  1  0
 10 12  2  0
 11 13  1  0
 13 14  2  0
 13 15  1  0
 15 16  1  0
 16 17  2  0
 16 18  1  0
 17 19  1  0
 18 20  2  0
 19 21  2  0
 20 21  1  0
M  END
>  <original SMILES>  (435) 
C=CCC(O)c1cccc(NC(=O)Nc2cccnc2)c1

>  <AutoDock Predicted Affinity>  (435) 
-5.443507

>  <ref_pdb>  (435) 
x0434_0

>  <ref_mols>  (435) 
x0434_0

>  <creator>  (435) 
Will Poole

>  <energy minimised>  (435) 
True

$$$$
WPC2723_minimised.pdb
     RDKit          3D

 21 22  0  0  0  0  0  0  0  0999 V2000
   15.3860    1.0190   17.9980 C   0  0  0  0  0  0  0  0  0  0  0  0
   15.4900    0.5010   19.2260 C   0  0  0  0  0  0  0  0  0  0  0  0
   14.5810   -0.5530   19.8010 C   0  0  0  0  0  0  0  0  0  0  0  0
   14.1680   -0.1950   21.1620 N   0  0  0  0  0  0  0  0  0  0  0  0
   13.1530   -1.0980   21.7270 C   0  0  0  0  0  0  0  0  0  0  0  0
   12.0810   -0.3410   22.5000 C   0  0  0  0  0  0  0  0  0  0  0  0
   10.7230   -0.5360   22.1830 C   0  0  0  0  0  0  0  0  0  0  0  0
    9.7220    0.1960   22.8440 C   0  0  0  0  0  0  0  0  0  0  0  0
   12.4250    0.6060   23.4820 C   0  0  0  0  0  0  0  0  0  0  0  0
   11.4230    1.3470   24.1300 C   0  0  0  0  0  0  0  0  0  0  0  0
    8.3710    0.0650   22.4600 N   0  0  0  0  0  0  0  0  0  0  0  0
   10.0720    1.1310   23.8250 C   0  0  0  0  0  0  0  0  0  0  0  0
    7.8810    0.4580   21.2450 C   0  0  0  0  0  0  0  0  0  0  0  0
    8.5680    0.9260   20.3630 O   0  0  0  0  0  0  0  0  0  0  0  0
    6.5360    0.2710   21.0800 N   0  0  0  0  0  0  0  0  0  0  0  0
    5.8240    0.6630   19.9190 C   0  0  0  0  0  0  0  0  0  0  0  0
    6.2190    0.2310   18.6320 C   0  0  0  0  0  0  0  0  0  0  0  0
    4.7950    1.6050   20.0300 C   0  0  0  0  0  0  0  0  0  0  0  0
    5.6460    0.6630   17.4880 N   0  0  0  0  0  0  0  0  0  0  0  0
    4.2260    2.0880   18.8440 C   0  0  0  0  0  0  0  0  0  0  0  0
    4.6900    1.6130   17.6080 C   0  0  0  0  0  0  0  0  0  0  0  0
  1  2  2  0
  2  3  1  0
  3  4  1  0
  4  5  1  0
  5  6  1  0
  6  9  2  0
  6  7  1  0
  7  8  2  0
  8 11  1  0
  8 12  1  0
  9 10  1  0
 10 12  2  0
 11 13  1  0
 13 14  2  0
 13 15  1  0
 15 16  1  0
 16 17  2  0
 16 18  1  0
 17 19  1  0
 18 20  2  0
 19 21  2  0
 20 21  1  0
M  END
>  <original SMILES>  (436) 
C=CCNCc1cccc(NC(=O)Nc2cccnc2)c1

>  <AutoDock Predicted Affinity>  (436) 
-5.80394

>  <ref_pdb>  (436) 
x0434_0

>  <ref_mols>  (436) 
x0434_0

>  <creator>  (436) 
Will Poole

>  <energy minimised>  (436) 
True

$$$$
WPC2819_minimised.pdb
     RDKit          3D

 19 20  0  0  0  0  0  0  0  0999 V2000
   14.8090   -0.1250   20.1350 C   0  0  0  0  0  0  0  0  0  0  0  0
   13.8340   -0.8400   20.6970 C   0  0  0  0  0  0  0  0  0  0  0  0
   13.4610   -0.7710   22.1560 C   0  0  0  0  0  0  0  0  0  0  0  0
   12.3510    0.2240   22.4370 C   0  0  0  0  0  0  0  0  0  0  0  0
   11.0080   -0.1320   22.2180 C   0  0  0  0  0  0  0  0  0  0  0  0
    9.9810    0.7840   22.4940 C   0  0  0  0  0  0  0  0  0  0  0  0
   12.6590    1.5080   22.9190 C   0  0  0  0  0  0  0  0  0  0  0  0
   11.6330    2.4310   23.1800 C   0  0  0  0  0  0  0  0  0  0  0  0
    8.6350    0.4590   22.2270 N   0  0  0  0  0  0  0  0  0  0  0  0
   10.2940    2.0650   22.9750 C   0  0  0  0  0  0  0  0  0  0  0  0
    8.1100    0.3640   20.9690 C   0  0  0  0  0  0  0  0  0  0  0  0
    8.7840    0.3500   19.9610 O   0  0  0  0  0  0  0  0  0  0  0  0
    6.7420    0.3550   20.9310 N   0  0  0  0  0  0  0  0  0  0  0  0
    5.9770    0.7050   19.7890 C   0  0  0  0  0  0  0  0  0  0  0  0
    6.2710    0.2230   18.4920 C   0  0  0  0  0  0  0  0  0  0  0  0
    4.9780    1.6750   19.9390 C   0  0  0  0  0  0  0  0  0  0  0  0
    5.6520    0.6670   17.3770 N   0  0  0  0  0  0  0  0  0  0  0  0
    4.3460    2.1460   18.7830 C   0  0  0  0  0  0  0  0  0  0  0  0
    4.7370    1.6510   17.5310 C   0  0  0  0  0  0  0  0  0  0  0  0
  1  2  2  0
  2  3  1  0
  3  4  1  0
  4  7  2  0
  4  5  1  0
  5  6  2  0
  6  9  1  0
  6 10  1  0
  7  8  1  0
  8 10  2  0
  9 11  1  0
 11 12  2  0
 11 13  1  0
 13 14  1  0
 14 15  2  0
 14 16  1  0
 15 17  1  0
 16 18  2  0
 17 19  2  0
 18 19  1  0
M  END
>  <original SMILES>  (437) 
C=CCc1cccc(NC(=O)Nc2cccnc2)c1

>  <AutoDock Predicted Affinity>  (437) 
-5.96932

>  <ref_pdb>  (437) 
x0434_0

>  <ref_mols>  (437) 
x0434_0

>  <creator>  (437) 
Will Poole

>  <energy minimised>  (437) 
True

$$$$
WPC2921_minimised.pdb
     RDKit          3D

 20 21  0  0  0  0  0  0  0  0999 V2000
   14.9190    1.6790   21.6160 C   0  0  0  0  0  0  0  0  0  0  0  0
   13.9840    1.2090   22.4330 C   0  0  0  0  0  0  0  0  0  0  0  0
   13.3180   -0.3900   22.1880 S   0  0  2  0  0  0  0  0  0  0  0  0
   13.4460   -0.9420   20.5850 O   0  0  0  0  0  0  0  0  0  0  0  0
   11.7250   -0.3620   23.0060 C   0  0  0  0  0  0  0  0  0  0  0  0
   10.5350   -0.4400   22.2740 C   0  0  0  0  0  0  0  0  0  0  0  0
    9.3010   -0.3250   22.9400 C   0  0  0  0  0  0  0  0  0  0  0  0
   11.6860   -0.1680   24.3950 C   0  0  0  0  0  0  0  0  0  0  0  0
   10.4580   -0.0930   25.0690 C   0  0  0  0  0  0  0  0  0  0  0  0
    8.0670   -0.3260   22.2570 N   0  0  0  0  0  0  0  0  0  0  0  0
    9.2660   -0.1730   24.3360 C   0  0  0  0  0  0  0  0  0  0  0  0
    7.7910    0.1410   21.0010 C   0  0  0  0  0  0  0  0  0  0  0  0
    8.5900    0.5250   20.1720 O   0  0  0  0  0  0  0  0  0  0  0  0
    6.4440    0.1590   20.7750 N   0  0  0  0  0  0  0  0  0  0  0  0
    5.8160    0.6910   19.6310 C   0  0  0  0  0  0  0  0  0  0  0  0
    6.2290    0.3360   18.3290 C   0  0  0  0  0  0  0  0  0  0  0  0
    4.8090    1.6500   19.7920 C   0  0  0  0  0  0  0  0  0  0  0  0
    5.6830    0.8610   17.2110 N   0  0  0  0  0  0  0  0  0  0  0  0
    4.2720    2.2260   18.6350 C   0  0  0  0  0  0  0  0  0  0  0  0
    4.7450    1.8210   17.3770 C   0  0  0  0  0  0  0  0  0  0  0  0
  1  2  2  0
  3  2  1  0
  3  4  1  6
  3  5  1  0
  5  8  2  0
  5  6  1  0
  6  7  2  0
  7 10  1  0
  7 11  1  0
  8  9  1  0
  9 11  2  0
 10 12  1  0
 12 13  2  0
 12 14  1  0
 14 15  1  0
 15 16  2  0
 15 17  1  0
 16 18  1  0
 17 19  2  0
 18 20  2  0
 19 20  1  0
M  END
>  <original SMILES>  (438) 
C=C[SH](O)c1cccc(NC(=O)Nc2cccnc2)c1

>  <AutoDock Predicted Affinity>  (438) 
-5.5837

>  <ref_pdb>  (438) 
x0434_0

>  <ref_mols>  (438) 
x0434_0

>  <creator>  (438) 
Will Poole

>  <energy minimised>  (438) 
True

$$$$
WPC2802_minimised.pdb
     RDKit          3D

 18 19  0  0  0  0  0  0  0  0999 V2000
   13.3980   -1.3370   21.1920 C   0  0  0  0  0  0  0  0  0  0  0  0
   13.3350   -0.2230   21.9480 C   0  0  0  0  0  0  0  0  0  0  0  0
   12.0940    0.3260   22.5490 C   0  0  0  0  0  0  0  0  0  0  0  0
   10.8130   -0.1190   22.1660 C   0  0  0  0  0  0  0  0  0  0  0  0
    9.6620    0.4400   22.7470 C   0  0  0  0  0  0  0  0  0  0  0  0
   12.2000    1.3490   23.5060 C   0  0  0  0  0  0  0  0  0  0  0  0
   11.0500    1.9000   24.0940 C   0  0  0  0  0  0  0  0  0  0  0  0
    8.3720    0.0750   22.3060 N   0  0  0  0  0  0  0  0  0  0  0  0
    9.7820    1.4360   23.7240 C   0  0  0  0  0  0  0  0  0  0  0  0
    7.9490    0.1450   21.0070 C   0  0  0  0  0  0  0  0  0  0  0  0
    8.6890    0.3000   20.0560 O   0  0  0  0  0  0  0  0  0  0  0  0
    6.5880    0.0930   20.8780 N   0  0  0  0  0  0  0  0  0  0  0  0
    5.8870    0.5480   19.7360 C   0  0  0  0  0  0  0  0  0  0  0  0
    6.2490    0.1620   18.4270 C   0  0  0  0  0  0  0  0  0  0  0  0
    4.8970    1.5230   19.9070 C   0  0  0  0  0  0  0  0  0  0  0  0
    5.6990    0.6980   17.3170 N   0  0  0  0  0  0  0  0  0  0  0  0
    4.3360    2.0890   18.7560 C   0  0  0  0  0  0  0  0  0  0  0  0
    4.7850    1.6780   17.4930 C   0  0  0  0  0  0  0  0  0  0  0  0
  1  2  2  0
  2  3  1  0
  3  4  2  0
  3  6  1  0
  4  5  1  0
  5  9  2  0
  5  8  1  0
  6  7  2  0
  7  9  1  0
  8 10  1  0
 10 11  2  0
 10 12  1  0
 12 13  1  0
 13 14  2  0
 13 15  1  0
 14 16  1  0
 15 17  2  0
 16 18  2  0
 17 18  1  0
M  END
>  <original SMILES>  (439) 
C=Cc1cccc(NC(=O)Nc2cccnc2)c1

>  <AutoDock Predicted Affinity>  (439) 
-5.95384

>  <ref_pdb>  (439) 
x0434_0

>  <ref_mols>  (439) 
x0434_0

>  <creator>  (439) 
Will Poole

>  <energy minimised>  (439) 
True

$$$$
WPC2682_minimised.pdb
     RDKit          3D

 18 19  0  0  0  0  0  0  0  0999 V2000
   13.5010   -1.1140   21.1320 C   0  0  0  0  0  0  0  0  0  0  0  0
   13.4880   -0.4950   22.2640 N   0  0  0  0  0  0  0  0  0  0  0  0
   12.4120    0.3330   22.6400 C   0  0  0  0  0  0  0  0  0  0  0  0
   11.0810   -0.0890   22.4780 C   0  0  0  0  0  0  0  0  0  0  0  0
   10.0230    0.7780   22.7900 C   0  0  0  0  0  0  0  0  0  0  0  0
   12.6750    1.6140   23.1430 C   0  0  0  0  0  0  0  0  0  0  0  0
   11.6190    2.4820   23.4660 C   0  0  0  0  0  0  0  0  0  0  0  0
    8.6940    0.4180   22.4840 N   0  0  0  0  0  0  0  0  0  0  0  0
   10.2910    2.0610   23.2900 C   0  0  0  0  0  0  0  0  0  0  0  0
    8.2100    0.3650   21.2050 C   0  0  0  0  0  0  0  0  0  0  0  0
    8.9190    0.4330   20.2230 O   0  0  0  0  0  0  0  0  0  0  0  0
    6.8460    0.2900   21.1140 N   0  0  0  0  0  0  0  0  0  0  0  0
    6.1070    0.6270   19.9510 C   0  0  0  0  0  0  0  0  0  0  0  0
    6.4490    0.1490   18.6640 C   0  0  0  0  0  0  0  0  0  0  0  0
    5.0840    1.5750   20.0670 C   0  0  0  0  0  0  0  0  0  0  0  0
    5.8530    0.5750   17.5290 N   0  0  0  0  0  0  0  0  0  0  0  0
    4.4780    2.0310   18.8910 C   0  0  0  0  0  0  0  0  0  0  0  0
    4.9130    1.5390   17.6530 C   0  0  0  0  0  0  0  0  0  0  0  0
  1  2  2  0
  2  3  1  0
  3  4  2  0
  3  6  1  0
  4  5  1  0
  5  9  2  0
  5  8  1  0
  6  7  2  0
  7  9  1  0
  8 10  1  0
 10 11  2  0
 10 12  1  0
 12 13  1  0
 13 14  2  0
 13 15  1  0
 14 16  1  0
 15 17  2  0
 16 18  2  0
 17 18  1  0
M  END
>  <original SMILES>  (440) 
C=Nc1cccc(NC(=O)Nc2cccnc2)c1

>  <AutoDock Predicted Affinity>  (440) 
-5.63064

>  <ref_pdb>  (440) 
x0434_0

>  <ref_mols>  (440) 
x0434_0

>  <creator>  (440) 
Will Poole

>  <energy minimised>  (440) 
True

$$$$
WPC2908_minimised.pdb
     RDKit          3D

 22 23  0  0  1  0  0  0  0  0999 V2000
   15.9530    0.2240   19.9430 C   0  0  0  0  0  0  0  0  0  0  0  0
   15.0400   -0.8190   20.5040 C   0  0  0  0  0  0  0  0  0  0  0  0
   15.3160   -2.0580   20.4560 N   0  0  0  0  0  0  0  0  0  0  0  0
   13.8500   -0.3480   20.9820 N   0  0  0  0  0  0  0  0  0  0  0  0
   13.3320   -0.5800   22.3280 C   0  0  2  0  0  0  0  0  0  0  0  0
   12.7230   -1.9880   22.4280 C   0  0  0  0  0  0  0  0  0  0  0  0
   12.3330    0.5240   22.6680 C   0  0  0  0  0  0  0  0  0  0  0  0
   10.9490    0.3510   22.4650 C   0  0  0  0  0  0  0  0  0  0  0  0
   10.0420    1.3760   22.7670 C   0  0  0  0  0  0  0  0  0  0  0  0
   12.7980    1.7620   23.1500 C   0  0  0  0  0  0  0  0  0  0  0  0
   11.8940    2.8030   23.4230 C   0  0  0  0  0  0  0  0  0  0  0  0
    8.6660    1.1880   22.5050 N   0  0  0  0  0  0  0  0  0  0  0  0
   10.5140    2.6060   23.2470 C   0  0  0  0  0  0  0  0  0  0  0  0
    8.1550    0.9280   21.2630 C   0  0  0  0  0  0  0  0  0  0  0  0
    8.8530    0.7810   20.2830 O   0  0  0  0  0  0  0  0  0  0  0  0
    6.7890    0.8790   21.1900 N   0  0  0  0  0  0  0  0  0  0  0  0
    6.0410    1.0230   19.9930 C   0  0  0  0  0  0  0  0  0  0  0  0
    6.4010    0.3970   18.7740 C   0  0  0  0  0  0  0  0  0  0  0  0
    4.9810    1.9380   19.9930 C   0  0  0  0  0  0  0  0  0  0  0  0
    5.7990    0.6650   17.5930 N   0  0  0  0  0  0  0  0  0  0  0  0
    4.3670    2.2260   18.7710 C   0  0  0  0  0  0  0  0  0  0  0  0
    4.8330    1.6110   17.6020 C   0  0  0  0  0  0  0  0  0  0  0  0
  1  2  1  0
  2  3  2  0
  2  4  1  0
  4  5  1  0
  5  6  1  6
  5  7  1  0
  7 10  2  0
  7  8  1  0
  8  9  2  0
  9 12  1  0
  9 13  1  0
 10 11  1  0
 11 13  2  0
 12 14  1  0
 14 15  2  0
 14 16  1  0
 16 17  1  0
 17 18  2  0
 17 19  1  0
 18 20  1  0
 19 21  2  0
 20 22  2  0
 21 22  1  0
M  END
>  <original SMILES>  (441) 
CC(=N)NC(C)c1cccc(NC(=O)Nc2cccnc2)c1

>  <AutoDock Predicted Affinity>  (441) 
-5.958757

>  <ref_pdb>  (441) 
x0434_0

>  <ref_mols>  (441) 
x0434_0

>  <creator>  (441) 
Will Poole

>  <energy minimised>  (441) 
True

$$$$
WPC2739_minimised.pdb
     RDKit          3D

 21 22  0  0  0  0  0  0  0  0999 V2000
   11.7960   -0.6830   21.6340 C   0  0  0  0  0  0  0  0  0  0  0  0
   13.2940   -0.5220   21.8300 C   0  0  0  0  0  0  0  0  0  0  0  0
   14.0700   -1.1450   21.1280 O   0  0  0  0  0  0  0  0  0  0  0  0
   13.8050    0.4300   22.9130 C   0  0  0  0  0  0  0  0  0  0  0  0
   12.7260    0.5370   24.4040 S   0  0  0  0  0  0  0  0  0  0  0  0
   11.4330    1.6460   23.9210 C   0  0  0  0  0  0  0  0  0  0  0  0
   10.1410    1.1310   23.7680 C   0  0  0  0  0  0  0  0  0  0  0  0
    9.1440    1.9270   23.2000 C   0  0  0  0  0  0  0  0  0  0  0  0
   11.7100    2.9810   23.5840 C   0  0  0  0  0  0  0  0  0  0  0  0
   10.6830    3.8050   23.0990 C   0  0  0  0  0  0  0  0  0  0  0  0
    7.9600    1.3240   22.7480 N   0  0  0  0  0  0  0  0  0  0  0  0
    9.4010    3.2710   22.8940 C   0  0  0  0  0  0  0  0  0  0  0  0
    7.7620    0.9830   21.4380 C   0  0  0  0  0  0  0  0  0  0  0  0
    8.6320    1.0070   20.5850 O   0  0  0  0  0  0  0  0  0  0  0  0
    6.4610    0.6720   21.1630 N   0  0  0  0  0  0  0  0  0  0  0  0
    5.8550    0.8970   19.9070 C   0  0  0  0  0  0  0  0  0  0  0  0
    6.3680    0.3730   18.6980 C   0  0  0  0  0  0  0  0  0  0  0  0
    4.7970    1.8110   19.8600 C   0  0  0  0  0  0  0  0  0  0  0  0
    5.8930    0.7230   17.4810 N   0  0  0  0  0  0  0  0  0  0  0  0
    4.3250    2.1940   18.6020 C   0  0  0  0  0  0  0  0  0  0  0  0
    4.9170    1.6590   17.4520 C   0  0  0  0  0  0  0  0  0  0  0  0
  1  2  1  0
  2  3  2  0
  2  4  1  0
  4  5  1  0
  5  6  1  0
  6  9  2  0
  6  7  1  0
  7  8  2  0
  8 11  1  0
  8 12  1  0
  9 10  1  0
 10 12  2  0
 11 13  1  0
 13 14  2  0
 13 15  1  0
 15 16  1  0
 16 17  2  0
 16 18  1  0
 17 19  1  0
 18 20  2  0
 19 21  2  0
 20 21  1  0
M  END
>  <original SMILES>  (442) 
CC(=O)CSc1cccc(NC(=O)Nc2cccnc2)c1

>  <AutoDock Predicted Affinity>  (442) 
-5.26852

>  <ref_pdb>  (442) 
x0434_0

>  <ref_mols>  (442) 
x0434_0

>  <creator>  (442) 
Will Poole

>  <energy minimised>  (442) 
True

$$$$
WPC2788_minimised.pdb
     RDKit          3D

 22 23  0  0  1  0  0  0  0  0999 V2000
   15.9170    0.7090   19.8720 C   0  0  0  0  0  0  0  0  0  0  0  0
   14.7320   -0.0610   19.3390 C   0  0  0  0  0  0  0  0  0  0  0  0
   14.4900   -0.0830   18.1550 O   0  0  0  0  0  0  0  0  0  0  0  0
   13.9150   -0.7800   20.1740 N   0  0  0  0  0  0  0  0  0  0  0  0
   13.8970   -0.8090   21.6330 C   0  0  2  0  0  0  0  0  0  0  0  0
   13.7210   -2.2770   22.0410 C   0  0  0  0  0  0  0  0  0  0  0  0
   12.8180    0.0990   22.2240 C   0  0  0  0  0  0  0  0  0  0  0  0
   11.4470   -0.2190   22.1190 C   0  0  0  0  0  0  0  0  0  0  0  0
   10.4690    0.6180   22.6830 C   0  0  0  0  0  0  0  0  0  0  0  0
   13.1890    1.2950   22.8690 C   0  0  0  0  0  0  0  0  0  0  0  0
   12.2090    2.1480   23.4040 C   0  0  0  0  0  0  0  0  0  0  0  0
    9.0960    0.3350   22.4960 N   0  0  0  0  0  0  0  0  0  0  0  0
   10.8520    1.8020   23.3260 C   0  0  0  0  0  0  0  0  0  0  0  0
    8.4150    0.6950   21.3650 C   0  0  0  0  0  0  0  0  0  0  0  0
    8.9450    1.2990   20.4610 O   0  0  0  0  0  0  0  0  0  0  0  0
    7.1010    0.3090   21.2800 N   0  0  0  0  0  0  0  0  0  0  0  0
    6.2870    0.5780   20.1450 C   0  0  0  0  0  0  0  0  0  0  0  0
    6.6430    0.1110   18.8570 C   0  0  0  0  0  0  0  0  0  0  0  0
    5.1850    1.4330   20.2670 C   0  0  0  0  0  0  0  0  0  0  0  0
    5.9590    0.4160   17.7320 N   0  0  0  0  0  0  0  0  0  0  0  0
    4.5030    1.7940   19.0960 C   0  0  0  0  0  0  0  0  0  0  0  0
    4.9300    1.2840   17.8600 C   0  0  0  0  0  0  0  0  0  0  0  0
  1  2  1  0
  2  3  2  0
  2  4  1  0
  4  5  1  0
  5  6  1  6
  5  7  1  0
  7 10  2  0
  7  8  1  0
  8  9  2  0
  9 12  1  0
  9 13  1  0
 10 11  1  0
 11 13  2  0
 12 14  1  0
 14 15  2  0
 14 16  1  0
 16 17  1  0
 17 18  2  0
 17 19  1  0
 18 20  1  0
 19 21  2  0
 20 22  2  0
 21 22  1  0
M  END
>  <original SMILES>  (443) 
CC(=O)NC(C)c1cccc(NC(=O)Nc2cccnc2)c1

>  <AutoDock Predicted Affinity>  (443) 
-6.11219

>  <ref_pdb>  (443) 
x0434_0

>  <ref_mols>  (443) 
x0434_0

>  <creator>  (443) 
Will Poole

>  <energy minimised>  (443) 
True

$$$$
WPC2764_minimised.pdb
     RDKit          3D

 21 22  0  0  0  0  0  0  0  0999 V2000
   13.8950   -1.5630   23.7250 C   0  0  0  0  0  0  0  0  0  0  0  0
   13.0850   -0.5730   22.8520 C   0  0  0  0  0  0  0  0  0  0  0  0
   13.6510    0.8570   23.0090 C   0  0  0  0  0  0  0  0  0  0  0  0
   13.3000   -0.9880   21.4540 C   0  0  0  0  0  0  0  0  0  0  0  0
   13.5660   -1.3270   20.3830 N   0  0  0  0  0  0  0  0  0  0  0  0
   11.6110   -0.5620   23.3040 C   0  0  0  0  0  0  0  0  0  0  0  0
   10.5090   -0.7200   22.4310 C   0  0  0  0  0  0  0  0  0  0  0  0
    9.1940   -0.6360   22.9310 C   0  0  0  0  0  0  0  0  0  0  0  0
   11.3440   -0.3160   24.6670 C   0  0  0  0  0  0  0  0  0  0  0  0
   10.0400   -0.2470   25.1680 C   0  0  0  0  0  0  0  0  0  0  0  0
    8.0520   -0.7200   22.1110 N   0  0  0  0  0  0  0  0  0  0  0  0
    8.9630   -0.4160   24.2960 C   0  0  0  0  0  0  0  0  0  0  0  0
    7.8710   -0.2050   20.8590 C   0  0  0  0  0  0  0  0  0  0  0  0
    8.7450    0.1830   20.1090 O   0  0  0  0  0  0  0  0  0  0  0  0
    6.5380   -0.1390   20.5720 N   0  0  0  0  0  0  0  0  0  0  0  0
    5.9420    0.5100   19.4700 C   0  0  0  0  0  0  0  0  0  0  0  0
    6.3760    0.2850   18.1490 C   0  0  0  0  0  0  0  0  0  0  0  0
    4.9190    1.4370   19.7050 C   0  0  0  0  0  0  0  0  0  0  0  0
    5.8400    0.9120   17.0810 N   0  0  0  0  0  0  0  0  0  0  0  0
    4.3830    2.1080   18.5990 C   0  0  0  0  0  0  0  0  0  0  0  0
    4.8810    1.8350   17.3180 C   0  0  0  0  0  0  0  0  0  0  0  0
  1  2  1  0
  2  4  1  0
  2  3  1  0
  2  6  1  0
  4  5  3  0
  6  9  2  0
  6  7  1  0
  7  8  2  0
  8 11  1  0
  8 12  1  0
  9 10  1  0
 10 12  2  0
 11 13  1  0
 13 14  2  0
 13 15  1  0
 15 16  1  0
 16 17  2  0
 16 18  1  0
 17 19  1  0
 18 20  2  0
 19 21  2  0
 20 21  1  0
M  END
>  <original SMILES>  (444) 
CC(C)(C#N)c1cccc(NC(=O)Nc2cccnc2)c1

>  <AutoDock Predicted Affinity>  (444) 
-7.207335

>  <ref_pdb>  (444) 
x0434_0

>  <ref_mols>  (444) 
x0434_0

>  <creator>  (444) 
Will Poole

>  <energy minimised>  (444) 
True

$$$$
WPC2734_minimised.pdb
     RDKit          3D

 20 21  0  0  0  0  0  0  0  0999 V2000
   12.8280   -0.8030   21.2500 C   0  0  0  0  0  0  0  0  0  0  0  0
   12.8250   -0.5570   22.7740 C   0  0  0  0  0  0  0  0  0  0  0  0
   13.5390    0.7880   23.0330 C   0  0  0  0  0  0  0  0  0  0  0  0
   13.6270   -1.7020   23.4340 C   0  0  0  0  0  0  0  0  0  0  0  0
   11.4040   -0.4820   23.3650 C   0  0  0  0  0  0  0  0  0  0  0  0
   10.2390   -0.5170   22.5690 C   0  0  0  0  0  0  0  0  0  0  0  0
    8.9680   -0.3370   23.1420 C   0  0  0  0  0  0  0  0  0  0  0  0
   11.2490   -0.3050   24.7520 C   0  0  0  0  0  0  0  0  0  0  0  0
    9.9850   -0.1560   25.3370 C   0  0  0  0  0  0  0  0  0  0  0  0
    7.7930   -0.2860   22.3610 N   0  0  0  0  0  0  0  0  0  0  0  0
    8.8420   -0.1700   24.5280 C   0  0  0  0  0  0  0  0  0  0  0  0
    7.6420    0.1290   21.0640 C   0  0  0  0  0  0  0  0  0  0  0  0
    8.5320    0.4040   20.2800 O   0  0  0  0  0  0  0  0  0  0  0  0
    6.3160    0.2180   20.7500 N   0  0  0  0  0  0  0  0  0  0  0  0
    5.7640    0.7570   19.5690 C   0  0  0  0  0  0  0  0  0  0  0  0
    6.2510    0.4210   18.2880 C   0  0  0  0  0  0  0  0  0  0  0  0
    4.7360    1.7000   19.6840 C   0  0  0  0  0  0  0  0  0  0  0  0
    5.7730    0.9670   17.1500 N   0  0  0  0  0  0  0  0  0  0  0  0
    4.2580    2.2840   18.5060 C   0  0  0  0  0  0  0  0  0  0  0  0
    4.8180    1.9170   17.2760 C   0  0  0  0  0  0  0  0  0  0  0  0
  1  2  1  0
  2  5  1  0
  2  3  1  0
  2  4  1  0
  5  6  2  0
  5  8  1  0
  6  7  1  0
  7 11  2  0
  7 10  1  0
  8  9  2  0
  9 11  1  0
 10 12  1  0
 12 13  2  0
 12 14  1  0
 14 15  1  0
 15 16  2  0
 15 17  1  0
 16 18  1  0
 17 19  2  0
 18 20  2  0
 19 20  1  0
M  END
>  <original SMILES>  (445) 
CC(C)(C)c1cccc(NC(=O)Nc2cccnc2)c1

>  <AutoDock Predicted Affinity>  (445) 
-6.663762

>  <ref_pdb>  (445) 
x0434_0

>  <ref_mols>  (445) 
x0434_0

>  <creator>  (445) 
Will Poole

>  <energy minimised>  (445) 
True

$$$$
WPC2759_minimised.pdb
     RDKit          3D

 20 21  0  0  0  0  0  0  0  0999 V2000
   13.2660   -1.2500   21.6100 C   0  0  0  0  0  0  0  0  0  0  0  0
   12.8270    0.0530   22.3030 C   0  0  0  0  0  0  0  0  0  0  0  0
   14.0060    0.7150   23.0420 C   0  0  0  0  0  0  0  0  0  0  0  0
   12.4880    0.9440   21.2730 O   0  0  0  0  0  0  0  0  0  0  0  0
   11.5550   -0.1220   23.1380 C   0  0  0  0  0  0  0  0  0  0  0  0
   10.3430   -0.3120   22.4520 C   0  0  0  0  0  0  0  0  0  0  0  0
    9.1110   -0.2660   23.1200 C   0  0  0  0  0  0  0  0  0  0  0  0
   11.5210    0.0100   24.5400 C   0  0  0  0  0  0  0  0  0  0  0  0
   10.2970   -0.0190   25.2290 C   0  0  0  0  0  0  0  0  0  0  0  0
    7.8850   -0.2720   22.4110 N   0  0  0  0  0  0  0  0  0  0  0  0
    9.0920   -0.1390   24.5170 C   0  0  0  0  0  0  0  0  0  0  0  0
    7.6520    0.1560   21.1260 C   0  0  0  0  0  0  0  0  0  0  0  0
    8.4960    0.4880   20.3140 O   0  0  0  0  0  0  0  0  0  0  0  0
    6.3170    0.1910   20.8440 N   0  0  0  0  0  0  0  0  0  0  0  0
    5.7390    0.7180   19.6670 C   0  0  0  0  0  0  0  0  0  0  0  0
    6.2020    0.3550   18.3830 C   0  0  0  0  0  0  0  0  0  0  0  0
    4.7360    1.6870   19.7820 C   0  0  0  0  0  0  0  0  0  0  0  0
    5.7220    0.8940   17.2430 N   0  0  0  0  0  0  0  0  0  0  0  0
    4.2570    2.2660   18.6010 C   0  0  0  0  0  0  0  0  0  0  0  0
    4.7900    1.8670   17.3680 C   0  0  0  0  0  0  0  0  0  0  0  0
  1  2  1  0
  2  5  1  0
  2  3  1  0
  2  4  1  0
  5  6  2  0
  5  8  1  0
  6  7  1  0
  7 11  2  0
  7 10  1  0
  8  9  2  0
  9 11  1  0
 10 12  1  0
 12 13  2  0
 12 14  1  0
 14 15  1  0
 15 16  2  0
 15 17  1  0
 16 18  1  0
 17 19  2  0
 18 20  2  0
 19 20  1  0
M  END
>  <original SMILES>  (446) 
CC(C)(O)c1cccc(NC(=O)Nc2cccnc2)c1

>  <AutoDock Predicted Affinity>  (446) 
-5.430615

>  <ref_pdb>  (446) 
x0434_0

>  <ref_mols>  (446) 
x0434_0

>  <creator>  (446) 
Will Poole

>  <energy minimised>  (446) 
True

$$$$
WPC2684_minimised.pdb
     RDKit          3D

 21 22  0  0  0  0  0  0  0  0999 V2000
   15.7610    2.1370   19.6990 C   0  0  0  0  0  0  0  0  0  0  0  0
   15.4620    0.6650   20.0220 C   0  0  0  0  0  0  0  0  0  0  0  0
   15.0460   -0.0990   18.7620 C   0  0  0  0  0  0  0  0  0  0  0  0
   14.5000    0.5930   21.1420 N   0  0  0  0  0  0  0  0  0  0  0  0
   13.8060   -0.6630   21.4940 C   0  0  0  0  0  0  0  0  0  0  0  0
   12.5770   -0.3700   22.3620 C   0  0  0  0  0  0  0  0  0  0  0  0
   11.2770   -0.7260   21.9370 C   0  0  0  0  0  0  0  0  0  0  0  0
   10.1450   -0.3810   22.7000 C   0  0  0  0  0  0  0  0  0  0  0  0
   12.7170    0.3420   23.5690 C   0  0  0  0  0  0  0  0  0  0  0  0
   11.5840    0.6670   24.3370 C   0  0  0  0  0  0  0  0  0  0  0  0
    8.8310   -0.6410   22.2450 N   0  0  0  0  0  0  0  0  0  0  0  0
   10.3050    0.2990   23.9100 C   0  0  0  0  0  0  0  0  0  0  0  0
    8.2140    0.0260   21.2190 C   0  0  0  0  0  0  0  0  0  0  0  0
    8.7670    0.8470   20.5210 O   0  0  0  0  0  0  0  0  0  0  0  0
    6.9040   -0.3080   21.0090 N   0  0  0  0  0  0  0  0  0  0  0  0
    6.1310    0.2190   19.9410 C   0  0  0  0  0  0  0  0  0  0  0  0
    6.4410   -0.1000   18.6010 C   0  0  0  0  0  0  0  0  0  0  0  0
    5.1460    1.1820   20.1930 C   0  0  0  0  0  0  0  0  0  0  0  0
    5.8160    0.4480   17.5370 N   0  0  0  0  0  0  0  0  0  0  0  0
    4.5190    1.7810   19.0900 C   0  0  0  0  0  0  0  0  0  0  0  0
    4.8860    1.3960   17.7900 C   0  0  0  0  0  0  0  0  0  0  0  0
  1  2  1  0
  2  3  1  0
  2  4  1  0
  4  5  1  0
  5  6  1  0
  6  9  2  0
  6  7  1  0
  7  8  2  0
  8 11  1  0
  8 12  1  0
  9 10  1  0
 10 12  2  0
 11 13  1  0
 13 14  2  0
 13 15  1  0
 15 16  1  0
 16 17  2  0
 16 18  1  0
 17 19  1  0
 18 20  2  0
 19 21  2  0
 20 21  1  0
M  END
>  <original SMILES>  (447) 
CC(C)NCc1cccc(NC(=O)Nc2cccnc2)c1

>  <AutoDock Predicted Affinity>  (447) 
-5.956945

>  <ref_pdb>  (447) 
x0434_0

>  <ref_mols>  (447) 
x0434_0

>  <creator>  (447) 
Will Poole

>  <energy minimised>  (447) 
True

$$$$
WPC2756_minimised.pdb
     RDKit          3D

 19 20  0  0  0  0  0  0  0  0999 V2000
   14.2030    0.8900   22.9150 C   0  0  0  0  0  0  0  0  0  0  0  0
   13.0370    0.2210   22.1630 C   0  0  0  0  0  0  0  0  0  0  0  0
   13.4930   -1.0900   21.4920 C   0  0  0  0  0  0  0  0  0  0  0  0
   11.7660    0.0450   22.9930 C   0  0  0  0  0  0  0  0  0  0  0  0
   10.5550   -0.1310   22.3060 C   0  0  0  0  0  0  0  0  0  0  0  0
    9.3300   -0.1720   22.9930 C   0  0  0  0  0  0  0  0  0  0  0  0
   11.7430    0.1260   24.3980 C   0  0  0  0  0  0  0  0  0  0  0  0
   10.5300    0.0400   25.0980 C   0  0  0  0  0  0  0  0  0  0  0  0
    8.0900   -0.2440   22.3170 N   0  0  0  0  0  0  0  0  0  0  0  0
    9.3240   -0.1010   24.3950 C   0  0  0  0  0  0  0  0  0  0  0  0
    7.7920    0.1590   21.0400 C   0  0  0  0  0  0  0  0  0  0  0  0
    8.5890    0.5340   20.2010 O   0  0  0  0  0  0  0  0  0  0  0  0
    6.4480    0.1160   20.7970 N   0  0  0  0  0  0  0  0  0  0  0  0
    5.8120    0.6390   19.6490 C   0  0  0  0  0  0  0  0  0  0  0  0
    6.2420    0.3130   18.3450 C   0  0  0  0  0  0  0  0  0  0  0  0
    4.7930    1.5840   19.8140 C   0  0  0  0  0  0  0  0  0  0  0  0
    5.7090    0.8570   17.2310 N   0  0  0  0  0  0  0  0  0  0  0  0
    4.2640    2.1750   18.6610 C   0  0  0  0  0  0  0  0  0  0  0  0
    4.7610    1.8070   17.4030 C   0  0  0  0  0  0  0  0  0  0  0  0
  1  2  1  0
  2  4  1  0
  2  3  1  0
  4  5  2  0
  4  7  1  0
  5  6  1  0
  6 10  2  0
  6  9  1  0
  7  8  2  0
  8 10  1  0
  9 11  1  0
 11 12  2  0
 11 13  1  0
 13 14  1  0
 14 15  2  0
 14 16  1  0
 15 17  1  0
 16 18  2  0
 17 19  2  0
 18 19  1  0
M  END
>  <original SMILES>  (448) 
CC(C)c1cccc(NC(=O)Nc2cccnc2)c1

>  <AutoDock Predicted Affinity>  (448) 
-5.931978

>  <ref_pdb>  (448) 
x0434_0

>  <ref_mols>  (448) 
x0434_0

>  <creator>  (448) 
Will Poole

>  <energy minimised>  (448) 
True

$$$$
WPC2720_minimised.pdb
     RDKit          3D

 20 21  0  0  1  0  0  0  0  0999 V2000
   11.5210   -1.9530   23.3500 C   0  0  0  0  0  0  0  0  0  0  0  0
   11.4150   -0.5080   23.8960 C   0  0  1  0  0  0  0  0  0  0  0  0
   12.0570    0.5180   22.9330 C   0  0  0  0  0  0  0  0  0  0  0  0
   13.5230    0.3840   22.8750 N   0  0  0  0  0  0  0  0  0  0  0  0
    9.9720   -0.1510   24.2170 C   0  0  0  0  0  0  0  0  0  0  0  0
    9.0040   -0.1280   23.2000 C   0  0  0  0  0  0  0  0  0  0  0  0
    7.6750    0.2120   23.4920 C   0  0  0  0  0  0  0  0  0  0  0  0
    9.5940    0.1580   25.5360 C   0  0  0  0  0  0  0  0  0  0  0  0
    8.2660    0.4980   25.8330 C   0  0  0  0  0  0  0  0  0  0  0  0
    6.6750    0.2410   22.4980 N   0  0  0  0  0  0  0  0  0  0  0  0
    7.3070    0.5240   24.8100 C   0  0  0  0  0  0  0  0  0  0  0  0
    6.7930    0.4530   21.1500 C   0  0  0  0  0  0  0  0  0  0  0  0
    7.8300    0.5690   20.5200 O   0  0  0  0  0  0  0  0  0  0  0  0
    5.5500    0.5340   20.5890 N   0  0  0  0  0  0  0  0  0  0  0  0
    5.2440    1.0310   19.3060 C   0  0  0  0  0  0  0  0  0  0  0  0
    5.9780    0.6760   18.1540 C   0  0  0  0  0  0  0  0  0  0  0  0
    4.2280    1.9860   19.2040 C   0  0  0  0  0  0  0  0  0  0  0  0
    5.7660    1.2360   16.9440 N   0  0  0  0  0  0  0  0  0  0  0  0
    4.0150    2.5740   17.9550 C   0  0  0  0  0  0  0  0  0  0  0  0
    4.8280    2.2090   16.8760 C   0  0  0  0  0  0  0  0  0  0  0  0
  2  1  1  6
  2  3  1  0
  2  5  1  0
  3  4  1  0
  5  8  2  0
  5  6  1  0
  6  7  2  0
  7 10  1  0
  7 11  1  0
  8  9  1  0
  9 11  2  0
 10 12  1  0
 12 13  2  0
 12 14  1  0
 14 15  1  0
 15 16  2  0
 15 17  1  0
 16 18  1  0
 17 19  2  0
 18 20  2  0
 19 20  1  0
M  END
>  <original SMILES>  (449) 
CC(CN)c1cccc(NC(=O)Nc2cccnc2)c1

>  <AutoDock Predicted Affinity>  (449) 
-5.15365

>  <ref_pdb>  (449) 
x0434_0

>  <ref_mols>  (449) 
x0434_0

>  <creator>  (449) 
Will Poole

>  <energy minimised>  (449) 
True

$$$$
WPC2922_minimised.pdb
     RDKit          3D

 20 21  0  0  1  0  0  0  0  0999 V2000
   12.2860   -2.3550   23.0640 C   0  0  0  0  0  0  0  0  0  0  0  0
   12.4490   -0.8830   22.6580 C   0  0  1  0  0  0  0  0  0  0  0  0
   12.6570   -0.7570   21.1390 C   0  0  0  0  0  0  0  0  0  0  0  0
   14.0320   -0.8940   20.7830 O   0  0  0  0  0  0  0  0  0  0  0  0
   11.2290   -0.1140   23.1280 C   0  0  0  0  0  0  0  0  0  0  0  0
    9.9970   -0.2720   22.4750 C   0  0  0  0  0  0  0  0  0  0  0  0
    8.8610    0.4010   22.9390 C   0  0  0  0  0  0  0  0  0  0  0  0
   11.3110    0.7190   24.2560 C   0  0  0  0  0  0  0  0  0  0  0  0
   10.1670    1.3770   24.7350 C   0  0  0  0  0  0  0  0  0  0  0  0
    7.6380    0.2880   22.2570 N   0  0  0  0  0  0  0  0  0  0  0  0
    8.9400    1.2140   24.0760 C   0  0  0  0  0  0  0  0  0  0  0  0
    7.4610    0.4360   20.9110 C   0  0  0  0  0  0  0  0  0  0  0  0
    8.3560    0.5420   20.0910 O   0  0  0  0  0  0  0  0  0  0  0  0
    6.1340    0.4920   20.5970 N   0  0  0  0  0  0  0  0  0  0  0  0
    5.5880    0.9660   19.3870 C   0  0  0  0  0  0  0  0  0  0  0  0
    6.1100    0.6080   18.1260 C   0  0  0  0  0  0  0  0  0  0  0  0
    4.5540    1.9060   19.4580 C   0  0  0  0  0  0  0  0  0  0  0  0
    5.6740    1.1460   16.9680 N   0  0  0  0  0  0  0  0  0  0  0  0
    4.1120    2.4730   18.2600 C   0  0  0  0  0  0  0  0  0  0  0  0
    4.7190    2.1020   17.0550 C   0  0  0  0  0  0  0  0  0  0  0  0
  2  1  1  6
  2  3  1  0
  2  5  1  0
  3  4  1  0
  5  8  2  0
  5  6  1  0
  6  7  2  0
  7 10  1  0
  7 11  1  0
  8  9  1  0
  9 11  2  0
 10 12  1  0
 12 13  2  0
 12 14  1  0
 14 15  1  0
 15 16  2  0
 15 17  1  0
 16 18  1  0
 17 19  2  0
 18 20  2  0
 19 20  1  0
M  END
>  <original SMILES>  (450) 
CC(CO)c1cccc(NC(=O)Nc2cccnc2)c1

>  <AutoDock Predicted Affinity>  (450) 
-5.19275

>  <ref_pdb>  (450) 
x0434_0

>  <ref_mols>  (450) 
x0434_0

>  <creator>  (450) 
Will Poole

>  <energy minimised>  (450) 
True

$$$$
WPC2796_minimised.pdb
     RDKit          3D

 19 20  0  0  1  0  0  0  0  0999 V2000
   13.3640   -1.3280   21.5320 C   0  0  0  0  0  0  0  0  0  0  0  0
   13.1130    0.0230   22.2200 C   0  0  2  0  0  0  0  0  0  0  0  0
   14.2990    0.3910   22.9890 N   0  0  0  0  0  0  0  0  0  0  0  0
   11.8230    0.0360   23.0390 C   0  0  0  0  0  0  0  0  0  0  0  0
   10.5980   -0.0770   22.3580 C   0  0  0  0  0  0  0  0  0  0  0  0
    9.3740   -0.0270   23.0470 C   0  0  0  0  0  0  0  0  0  0  0  0
   11.8020    0.1770   24.4410 C   0  0  0  0  0  0  0  0  0  0  0  0
   10.5850    0.1830   25.1420 C   0  0  0  0  0  0  0  0  0  0  0  0
    8.1250   -0.0830   22.3830 N   0  0  0  0  0  0  0  0  0  0  0  0
    9.3730    0.0890   24.4440 C   0  0  0  0  0  0  0  0  0  0  0  0
    7.8290    0.2750   21.0940 C   0  0  0  0  0  0  0  0  0  0  0  0
    8.6320    0.6030   20.2430 O   0  0  0  0  0  0  0  0  0  0  0  0
    6.4840    0.2380   20.8530 N   0  0  0  0  0  0  0  0  0  0  0  0
    5.8500    0.7210   19.6860 C   0  0  0  0  0  0  0  0  0  0  0  0
    6.2860    0.3560   18.3930 C   0  0  0  0  0  0  0  0  0  0  0  0
    4.8240    1.6630   19.8170 C   0  0  0  0  0  0  0  0  0  0  0  0
    5.7580    0.8660   17.2610 N   0  0  0  0  0  0  0  0  0  0  0  0
    4.2960    2.2150   18.6440 C   0  0  0  0  0  0  0  0  0  0  0  0
    4.8050    1.8170   17.4010 C   0  0  0  0  0  0  0  0  0  0  0  0
  2  1  1  1
  2  4  1  0
  2  3  1  0
  4  5  2  0
  4  7  1  0
  5  6  1  0
  6 10  2  0
  6  9  1  0
  7  8  2  0
  8 10  1  0
  9 11  1  0
 11 12  2  0
 11 13  1  0
 13 14  1  0
 14 15  2  0
 14 16  1  0
 15 17  1  0
 16 18  2  0
 17 19  2  0
 18 19  1  0
M  END
>  <original SMILES>  (451) 
CC(N)c1cccc(NC(=O)Nc2cccnc2)c1

>  <AutoDock Predicted Affinity>  (451) 
-5.595581

>  <ref_pdb>  (451) 
x0434_0

>  <ref_mols>  (451) 
x0434_0

>  <creator>  (451) 
Will Poole

>  <energy minimised>  (451) 
True

$$$$
WPC2907_minimised.pdb
     RDKit          3D

 22 23  0  0  1  0  0  0  0  0999 V2000
   11.2100   -2.1850   23.1880 C   0  0  0  0  0  0  0  0  0  0  0  0
   11.6860   -0.7360   22.9710 C   0  0  1  0  0  0  0  0  0  0  0  0
   12.3260   -0.6180   21.6640 N   0  0  0  0  0  0  0  0  0  0  0  0
   13.6470   -0.7110   21.4820 C   0  0  0  0  0  0  0  0  0  0  0  0
   14.1290   -1.1970   20.4400 N   0  0  0  0  0  0  0  0  0  0  0  0
   14.2070    0.3490   22.0460 N   0  0  0  0  0  0  0  0  0  0  0  0
   10.5970    0.3130   23.0990 C   0  0  0  0  0  0  0  0  0  0  0  0
    9.3300    0.1030   22.5340 C   0  0  0  0  0  0  0  0  0  0  0  0
    8.3410    1.0870   22.6350 C   0  0  0  0  0  0  0  0  0  0  0  0
   10.8700    1.5360   23.7410 C   0  0  0  0  0  0  0  0  0  0  0  0
    9.8800    2.5290   23.8320 C   0  0  0  0  0  0  0  0  0  0  0  0
    7.0980    0.8780   22.0170 N   0  0  0  0  0  0  0  0  0  0  0  0
    8.6100    2.3010   23.2810 C   0  0  0  0  0  0  0  0  0  0  0  0
    6.9310    0.6950   20.6760 C   0  0  0  0  0  0  0  0  0  0  0  0
    7.8440    0.5540   19.8820 O   0  0  0  0  0  0  0  0  0  0  0  0
    5.6120    0.7230   20.3250 N   0  0  0  0  0  0  0  0  0  0  0  0
    5.1220    1.1370   19.0690 C   0  0  0  0  0  0  0  0  0  0  0  0
    5.7420    0.7850   17.8510 C   0  0  0  0  0  0  0  0  0  0  0  0
    4.0760    2.0670   19.0570 C   0  0  0  0  0  0  0  0  0  0  0  0
    5.4110    1.3360   16.6670 N   0  0  0  0  0  0  0  0  0  0  0  0
    3.7320    2.6420   17.8310 C   0  0  0  0  0  0  0  0  0  0  0  0
    4.4540    2.2940   16.6830 C   0  0  0  0  0  0  0  0  0  0  0  0
  2  1  1  6
  2  3  1  0
  2  7  1  0
  3  4  1  0
  4  5  2  0
  4  6  1  0
  7 10  2  0
  7  8  1  0
  8  9  2  0
  9 12  1  0
  9 13  1  0
 10 11  1  0
 11 13  2  0
 12 14  1  0
 14 15  2  0
 14 16  1  0
 16 17  1  0
 17 18  2  0
 17 19  1  0
 18 20  1  0
 19 21  2  0
 20 22  2  0
 21 22  1  0
M  END
>  <original SMILES>  (452) 
CC(NC(=N)N)c1cccc(NC(=O)Nc2cccnc2)c1

>  <AutoDock Predicted Affinity>  (452) 
-6.38883

>  <ref_pdb>  (452) 
x0434_0

>  <ref_mols>  (452) 
x0434_0

>  <creator>  (452) 
Will Poole

>  <energy minimised>  (452) 
True

$$$$
WPC2703_minimised.pdb
     RDKit          3D

 23 24  0  0  1  0  0  0  0  0999 V2000
   13.5550   -1.6360   21.5040 C   0  0  0  0  0  0  0  0  0  0  0  0
   14.0520   -0.2570   21.9940 C   0  0  1  0  0  0  0  0  0  0  0  0
   14.7850    0.5200   20.9780 N   0  0  0  0  0  0  0  0  0  0  0  0
   15.5650   -0.1560   19.7180 S   0  0  0  0  0  0  0  0  0  0  0  0
   16.7020    1.0880   19.2110 C   0  0  0  0  0  0  0  0  0  0  0  0
   16.2940   -1.3060   20.1750 O   0  0  0  0  0  0  0  0  0  0  0  0
   14.5510   -0.3120   18.7130 O   0  0  0  0  0  0  0  0  0  0  0  0
   12.9200    0.6220   22.5490 C   0  0  0  0  0  0  0  0  0  0  0  0
   11.5490    0.2700   22.4640 C   0  0  0  0  0  0  0  0  0  0  0  0
   10.5470    1.1310   22.9440 C   0  0  0  0  0  0  0  0  0  0  0  0
   13.2500    1.8710   23.1090 C   0  0  0  0  0  0  0  0  0  0  0  0
   12.2460    2.7520   23.5460 C   0  0  0  0  0  0  0  0  0  0  0  0
    9.1810    0.8130   22.7440 N   0  0  0  0  0  0  0  0  0  0  0  0
   10.8960    2.3760   23.4810 C   0  0  0  0  0  0  0  0  0  0  0  0
    8.5660    0.9400   21.5280 C   0  0  0  0  0  0  0  0  0  0  0  0
    9.1710    1.2940   20.5430 O   0  0  0  0  0  0  0  0  0  0  0  0
    7.2290    0.6350   21.4610 N   0  0  0  0  0  0  0  0  0  0  0  0
    6.4450    0.8160   20.2870 C   0  0  0  0  0  0  0  0  0  0  0  0
    6.8050    0.2330   19.0480 C   0  0  0  0  0  0  0  0  0  0  0  0
    5.3650    1.7080   20.3180 C   0  0  0  0  0  0  0  0  0  0  0  0
    6.1650    0.4870   17.8830 N   0  0  0  0  0  0  0  0  0  0  0  0
    4.7190    1.9980   19.1080 C   0  0  0  0  0  0  0  0  0  0  0  0
    5.1620    1.3920   17.9220 C   0  0  0  0  0  0  0  0  0  0  0  0
  2  1  1  6
  2  3  1  0
  2  8  1  0
  3  4  1  0
  4  5  1  0
  4  6  2  0
  4  7  2  0
  8 11  2  0
  8  9  1  0
  9 10  2  0
 10 13  1  0
 10 14  1  0
 11 12  1  0
 12 14  2  0
 13 15  1  0
 15 16  2  0
 15 17  1  0
 17 18  1  0
 18 19  2  0
 18 20  1  0
 19 21  1  0
 20 22  2  0
 21 23  2  0
 22 23  1  0
M  END
>  <original SMILES>  (453) 
CC(NS(C)(=O)=O)c1cccc(NC(=O)Nc2cccnc2)c1

>  <AutoDock Predicted Affinity>  (453) 
-5.04224

>  <ref_pdb>  (453) 
x0434_0

>  <ref_mols>  (453) 
x0434_0

>  <creator>  (453) 
Will Poole

>  <energy minimised>  (453) 
True

$$$$
WPC2835_minimised.pdb
     RDKit          3D

 21 22  0  0  1  0  0  0  0  0999 V2000
   16.1570    1.3410   18.9610 C   0  0  0  0  0  0  0  0  0  0  0  0
   15.4060    0.2700   19.7730 C   0  0  2  0  0  0  0  0  0  0  0  0
   14.6130   -0.5230   18.9100 O   0  0  0  0  0  0  0  0  0  0  0  0
   14.5190    0.8520   20.8990 C   0  0  0  0  0  0  0  0  0  0  0  0
   13.7850   -0.2160   21.7480 C   0  0  0  0  0  0  0  0  0  0  0  0
   12.5610    0.3730   22.4310 C   0  0  0  0  0  0  0  0  0  0  0  0
   11.2670   -0.0320   22.0530 C   0  0  0  0  0  0  0  0  0  0  0  0
   10.1370    0.5510   22.6490 C   0  0  0  0  0  0  0  0  0  0  0  0
   12.7140    1.3710   23.4070 C   0  0  0  0  0  0  0  0  0  0  0  0
   11.5850    1.9540   24.0030 C   0  0  0  0  0  0  0  0  0  0  0  0
    8.8280    0.2110   22.2440 N   0  0  0  0  0  0  0  0  0  0  0  0
   10.2990    1.5350   23.6340 C   0  0  0  0  0  0  0  0  0  0  0  0
    8.3570    0.2410   20.9590 C   0  0  0  0  0  0  0  0  0  0  0  0
    9.0590    0.3340   19.9700 O   0  0  0  0  0  0  0  0  0  0  0  0
    6.9900    0.2130   20.8940 N   0  0  0  0  0  0  0  0  0  0  0  0
    6.2150    0.6120   19.7770 C   0  0  0  0  0  0  0  0  0  0  0  0
    6.4880    0.1750   18.4620 C   0  0  0  0  0  0  0  0  0  0  0  0
    5.1960    1.5510   19.9790 C   0  0  0  0  0  0  0  0  0  0  0  0
    5.8130    0.6170   17.3780 N   0  0  0  0  0  0  0  0  0  0  0  0
    4.5140    2.0300   18.8550 C   0  0  0  0  0  0  0  0  0  0  0  0
    4.8700    1.5650   17.5810 C   0  0  0  0  0  0  0  0  0  0  0  0
  2  1  1  6
  2  3  1  0
  2  4  1  0
  4  5  1  0
  5  6  1  0
  6  9  2  0
  6  7  1  0
  7  8  2  0
  8 11  1  0
  8 12  1  0
  9 10  1  0
 10 12  2  0
 11 13  1  0
 13 14  2  0
 13 15  1  0
 15 16  1  0
 16 17  2  0
 16 18  1  0
 17 19  1  0
 18 20  2  0
 19 21  2  0
 20 21  1  0
M  END
>  <original SMILES>  (454) 
CC(O)CCc1cccc(NC(=O)Nc2cccnc2)c1

>  <AutoDock Predicted Affinity>  (454) 
-5.89113

>  <ref_pdb>  (454) 
x0434_0

>  <ref_mols>  (454) 
x0434_0

>  <creator>  (454) 
Will Poole

>  <energy minimised>  (454) 
True

$$$$
WPC2888_minimised.pdb
     RDKit          3D

 19 20  0  0  1  0  0  0  0  0999 V2000
   14.1720    0.7880   22.7710 C   0  0  0  0  0  0  0  0  0  0  0  0
   12.9830    0.1500   22.0370 C   0  0  1  0  0  0  0  0  0  0  0  0
   13.3730   -1.1090   21.4950 O   0  0  0  0  0  0  0  0  0  0  0  0
   11.7150    0.0060   22.8740 C   0  0  0  0  0  0  0  0  0  0  0  0
   10.4980   -0.1790   22.1990 C   0  0  0  0  0  0  0  0  0  0  0  0
    9.2770   -0.1890   22.8960 C   0  0  0  0  0  0  0  0  0  0  0  0
   11.7000    0.1230   24.2780 C   0  0  0  0  0  0  0  0  0  0  0  0
   10.4900    0.0660   24.9870 C   0  0  0  0  0  0  0  0  0  0  0  0
    8.0300   -0.2560   22.2320 N   0  0  0  0  0  0  0  0  0  0  0  0
    9.2790   -0.0790   24.2950 C   0  0  0  0  0  0  0  0  0  0  0  0
    7.7300    0.1300   20.9510 C   0  0  0  0  0  0  0  0  0  0  0  0
    8.5320    0.4470   20.0930 O   0  0  0  0  0  0  0  0  0  0  0  0
    6.3820    0.1380   20.7290 N   0  0  0  0  0  0  0  0  0  0  0  0
    5.7490    0.6770   19.5860 C   0  0  0  0  0  0  0  0  0  0  0  0
    6.1760    0.3590   18.2790 C   0  0  0  0  0  0  0  0  0  0  0  0
    4.7390    1.6300   19.7600 C   0  0  0  0  0  0  0  0  0  0  0  0
    5.6540    0.9220   17.1710 N   0  0  0  0  0  0  0  0  0  0  0  0
    4.2170    2.2380   18.6120 C   0  0  0  0  0  0  0  0  0  0  0  0
    4.7150    1.8800   17.3510 C   0  0  0  0  0  0  0  0  0  0  0  0
  2  1  1  1
  2  4  1  0
  2  3  1  0
  4  5  2  0
  4  7  1  0
  5  6  1  0
  6 10  2  0
  6  9  1  0
  7  8  2  0
  8 10  1  0
  9 11  1  0
 11 12  2  0
 11 13  1  0
 13 14  1  0
 14 15  2  0
 14 16  1  0
 15 17  1  0
 16 18  2  0
 17 19  2  0
 18 19  1  0
M  END
>  <original SMILES>  (455) 
CC(O)c1cccc(NC(=O)Nc2cccnc2)c1

>  <AutoDock Predicted Affinity>  (455) 
-5.651205

>  <ref_pdb>  (455) 
x0434_0

>  <ref_mols>  (455) 
x0434_0

>  <creator>  (455) 
Will Poole

>  <energy minimised>  (455) 
True

$$$$
WPC2857_minimised.pdb
     RDKit          3D

 21 22  0  0  1  0  0  0  0  0999 V2000
   15.8620    0.5180   19.6120 C   0  0  0  0  0  0  0  0  0  0  0  0
   14.6640   -0.3770   19.4250 C   0  0  0  0  0  0  0  0  0  0  0  0
   13.7570   -0.7490   20.3350 C   0  0  0  0  0  0  0  0  0  0  0  0
   13.7720   -0.4740   21.8150 C   0  0  2  0  0  0  0  0  0  0  0  0
   13.8660   -1.7410   22.4260 O   0  0  0  0  0  0  0  0  0  0  0  0
   12.5350    0.2350   22.3510 C   0  0  0  0  0  0  0  0  0  0  0  0
   11.2290   -0.1990   22.0370 C   0  0  0  0  0  0  0  0  0  0  0  0
   10.1130    0.4610   22.5810 C   0  0  0  0  0  0  0  0  0  0  0  0
   12.7020    1.3410   23.2060 C   0  0  0  0  0  0  0  0  0  0  0  0
   11.5860    2.0000   23.7440 C   0  0  0  0  0  0  0  0  0  0  0  0
    8.7980    0.0910   22.2280 N   0  0  0  0  0  0  0  0  0  0  0  0
   10.2930    1.5520   23.4410 C   0  0  0  0  0  0  0  0  0  0  0  0
    8.2900    0.1750   20.9610 C   0  0  0  0  0  0  0  0  0  0  0  0
    8.9720    0.3440   19.9730 O   0  0  0  0  0  0  0  0  0  0  0  0
    6.9230    0.1190   20.9050 N   0  0  0  0  0  0  0  0  0  0  0  0
    6.1530    0.5380   19.7900 C   0  0  0  0  0  0  0  0  0  0  0  0
    6.4310    0.1100   18.4730 C   0  0  0  0  0  0  0  0  0  0  0  0
    5.1570    1.5030   19.9900 C   0  0  0  0  0  0  0  0  0  0  0  0
    5.7840    0.5830   17.3850 N   0  0  0  0  0  0  0  0  0  0  0  0
    4.5020    2.0110   18.8620 C   0  0  0  0  0  0  0  0  0  0  0  0
    4.8630    1.5520   17.5870 C   0  0  0  0  0  0  0  0  0  0  0  0
  1  2  1  0
  2  3  2  0
  3  4  1  0
  4  5  1  1
  4  6  1  0
  6  9  2  0
  6  7  1  0
  7  8  2  0
  8 11  1  0
  8 12  1  0
  9 10  1  0
 10 12  2  0
 11 13  1  0
 13 14  2  0
 13 15  1  0
 15 16  1  0
 16 17  2  0
 16 18  1  0
 17 19  1  0
 18 20  2  0
 19 21  2  0
 20 21  1  0
M  END
>  <original SMILES>  (456) 
CC=CC(O)c1cccc(NC(=O)Nc2cccnc2)c1

>  <AutoDock Predicted Affinity>  (456) 
-5.706155

>  <ref_pdb>  (456) 
x0434_0

>  <ref_mols>  (456) 
x0434_0

>  <creator>  (456) 
Will Poole

>  <energy minimised>  (456) 
True

$$$$
WPC2769_minimised.pdb
     RDKit          3D

 21 22  0  0  0  0  0  0  0  0999 V2000
   14.0220   -0.9660   20.8370 C   0  0  0  0  0  0  0  0  0  0  0  0
   12.9560   -0.1190   21.5560 C   0  0  0  0  0  0  0  0  0  0  0  0
   12.4630   -0.7010   22.9090 C   0  0  0  0  0  0  0  0  0  0  0  0
   13.6020   -0.5920   23.9620 C   0  0  0  0  0  0  0  0  0  0  0  0
   12.1090   -2.2020   22.7720 C   0  0  0  0  0  0  0  0  0  0  0  0
   11.1950    0.0670   23.3220 C   0  0  0  0  0  0  0  0  0  0  0  0
    9.9870   -0.1690   22.6360 C   0  0  0  0  0  0  0  0  0  0  0  0
    8.8050    0.4750   23.0190 C   0  0  0  0  0  0  0  0  0  0  0  0
   11.1910    1.0160   24.3630 C   0  0  0  0  0  0  0  0  0  0  0  0
   10.0040    1.6480   24.7620 C   0  0  0  0  0  0  0  0  0  0  0  0
    7.6090    0.2570   22.3150 N   0  0  0  0  0  0  0  0  0  0  0  0
    8.8050    1.3660   24.0960 C   0  0  0  0  0  0  0  0  0  0  0  0
    7.4450    0.3850   20.9650 C   0  0  0  0  0  0  0  0  0  0  0  0
    8.3410    0.5170   20.1520 O   0  0  0  0  0  0  0  0  0  0  0  0
    6.1200    0.3920   20.6400 N   0  0  0  0  0  0  0  0  0  0  0  0
    5.5730    0.8810   19.4370 C   0  0  0  0  0  0  0  0  0  0  0  0
    6.0810    0.5210   18.1710 C   0  0  0  0  0  0  0  0  0  0  0  0
    4.5550    1.8360   19.5210 C   0  0  0  0  0  0  0  0  0  0  0  0
    5.6340    1.0600   17.0170 N   0  0  0  0  0  0  0  0  0  0  0  0
    4.1070    2.4120   18.3290 C   0  0  0  0  0  0  0  0  0  0  0  0
    4.6890    2.0250   17.1150 C   0  0  0  0  0  0  0  0  0  0  0  0
  1  2  1  0
  2  3  1  0
  3  4  1  0
  3  5  1  0
  3  6  1  0
  6  9  2  0
  6  7  1  0
  7  8  2  0
  8 11  1  0
  8 12  1  0
  9 10  1  0
 10 12  2  0
 11 13  1  0
 13 14  2  0
 13 15  1  0
 15 16  1  0
 16 17  2  0
 16 18  1  0
 17 19  1  0
 18 20  2  0
 19 21  2  0
 20 21  1  0
M  END
>  <original SMILES>  (457) 
CCC(C)(C)c1cccc(NC(=O)Nc2cccnc2)c1

>  <AutoDock Predicted Affinity>  (457) 
-6.37417

>  <ref_pdb>  (457) 
x0434_0

>  <ref_mols>  (457) 
x0434_0

>  <creator>  (457) 
Will Poole

>  <energy minimised>  (457) 
True

$$$$
WPC2864_minimised.pdb
     RDKit          3D

 20 21  0  0  1  0  0  0  0  0999 V2000
   15.3060    0.8000   20.2010 C   0  0  0  0  0  0  0  0  0  0  0  0
   14.3020    0.9250   21.3830 C   0  0  0  0  0  0  0  0  0  0  0  0
   13.2610   -0.2210   21.4720 C   0  0  1  0  0  0  0  0  0  0  0  0
   13.9220   -1.5380   21.8920 C   0  0  0  0  0  0  0  0  0  0  0  0
   12.0670    0.1080   22.3740 C   0  0  0  0  0  0  0  0  0  0  0  0
   10.7610   -0.1020   21.8900 C   0  0  0  0  0  0  0  0  0  0  0  0
    9.6350    0.1790   22.6830 C   0  0  0  0  0  0  0  0  0  0  0  0
   12.2310    0.5850   23.6880 C   0  0  0  0  0  0  0  0  0  0  0  0
   11.1040    0.8330   24.4940 C   0  0  0  0  0  0  0  0  0  0  0  0
    8.3150    0.0260   22.1970 N   0  0  0  0  0  0  0  0  0  0  0  0
    9.8130    0.6340   23.9930 C   0  0  0  0  0  0  0  0  0  0  0  0
    7.8700    0.2970   20.9310 C   0  0  0  0  0  0  0  0  0  0  0  0
    8.5820    0.5830   19.9910 O   0  0  0  0  0  0  0  0  0  0  0  0
    6.5070    0.2410   20.8150 N   0  0  0  0  0  0  0  0  0  0  0  0
    5.7820    0.6910   19.6850 C   0  0  0  0  0  0  0  0  0  0  0  0
    6.1300    0.3060   18.3710 C   0  0  0  0  0  0  0  0  0  0  0  0
    4.7670    1.6370   19.8690 C   0  0  0  0  0  0  0  0  0  0  0  0
    5.5250    0.7950   17.2680 N   0  0  0  0  0  0  0  0  0  0  0  0
    4.1650    2.1750   18.7250 C   0  0  0  0  0  0  0  0  0  0  0  0
    4.5860    1.7510   17.4570 C   0  0  0  0  0  0  0  0  0  0  0  0
  1  2  1  0
  2  3  1  0
  3  4  1  1
  3  5  1  0
  5  8  2  0
  5  6  1  0
  6  7  2  0
  7 10  1  0
  7 11  1  0
  8  9  1  0
  9 11  2  0
 10 12  1  0
 12 13  2  0
 12 14  1  0
 14 15  1  0
 15 16  2  0
 15 17  1  0
 16 18  1  0
 17 19  2  0
 18 20  2  0
 19 20  1  0
M  END
>  <original SMILES>  (458) 
CCC(C)c1cccc(NC(=O)Nc2cccnc2)c1

>  <AutoDock Predicted Affinity>  (458) 
-5.88097

>  <ref_pdb>  (458) 
x0434_0

>  <ref_mols>  (458) 
x0434_0

>  <creator>  (458) 
Will Poole

>  <energy minimised>  (458) 
True

$$$$
WPC2824_minimised.pdb
     RDKit          3D

 20 21  0  0  1  0  0  0  0  0999 V2000
   14.6180   -0.1070   19.9530 C   0  0  0  0  0  0  0  0  0  0  0  0
   13.6980    0.3930   21.0840 C   0  0  0  0  0  0  0  0  0  0  0  0
   13.0310   -0.7680   21.8250 C   0  0  1  0  0  0  0  0  0  0  0  0
   14.0540   -1.4360   22.6240 N   0  0  0  0  0  0  0  0  0  0  0  0
   11.8170   -0.3120   22.6290 C   0  0  0  0  0  0  0  0  0  0  0  0
   10.5430   -0.4430   22.0500 C   0  0  0  0  0  0  0  0  0  0  0  0
    9.3920   -0.0230   22.7350 C   0  0  0  0  0  0  0  0  0  0  0  0
   11.9260    0.2540   23.9150 C   0  0  0  0  0  0  0  0  0  0  0  0
   10.7690    0.6310   24.6200 C   0  0  0  0  0  0  0  0  0  0  0  0
    8.1130   -0.0910   22.1420 N   0  0  0  0  0  0  0  0  0  0  0  0
    9.5060    0.4960   24.0300 C   0  0  0  0  0  0  0  0  0  0  0  0
    7.7970    0.2080   20.8440 C   0  0  0  0  0  0  0  0  0  0  0  0
    8.5990    0.4420   19.9610 O   0  0  0  0  0  0  0  0  0  0  0  0
    6.4450    0.2400   20.6500 N   0  0  0  0  0  0  0  0  0  0  0  0
    5.7850    0.7450   19.5070 C   0  0  0  0  0  0  0  0  0  0  0  0
    6.1840    0.4120   18.1940 C   0  0  0  0  0  0  0  0  0  0  0  0
    4.7530    1.6730   19.6900 C   0  0  0  0  0  0  0  0  0  0  0  0
    5.6100    0.9350   17.0910 N   0  0  0  0  0  0  0  0  0  0  0  0
    4.1830    2.2450   18.5480 C   0  0  0  0  0  0  0  0  0  0  0  0
    4.6520    1.8730   17.2810 C   0  0  0  0  0  0  0  0  0  0  0  0
  1  2  1  0
  2  3  1  0
  3  4  1  1
  3  5  1  0
  5  8  2  0
  5  6  1  0
  6  7  2  0
  7 10  1  0
  7 11  1  0
  8  9  1  0
  9 11  2  0
 10 12  1  0
 12 13  2  0
 12 14  1  0
 14 15  1  0
 15 16  2  0
 15 17  1  0
 16 18  1  0
 17 19  2  0
 18 20  2  0
 19 20  1  0
M  END
>  <original SMILES>  (459) 
CCC(N)c1cccc(NC(=O)Nc2cccnc2)c1

>  <AutoDock Predicted Affinity>  (459) 
-5.383998

>  <ref_pdb>  (459) 
x0434_0

>  <ref_mols>  (459) 
x0434_0

>  <creator>  (459) 
Will Poole

>  <energy minimised>  (459) 
True

$$$$
WPC2765_minimised.pdb
     RDKit          3D

 20 21  0  0  1  0  0  0  0  0999 V2000
   13.7120   -0.1770   22.5060 C   0  0  0  0  0  0  0  0  0  0  0  0
   12.2090    0.1200   22.6930 C   0  0  0  0  0  0  0  0  0  0  0  0
   11.5320   -0.8640   23.6710 C   0  0  2  0  0  0  0  0  0  0  0  0
   11.5440   -2.1730   23.1110 O   0  0  0  0  0  0  0  0  0  0  0  0
   10.1120   -0.4600   24.0250 C   0  0  0  0  0  0  0  0  0  0  0  0
    9.1070   -0.4750   23.0450 C   0  0  0  0  0  0  0  0  0  0  0  0
    7.8020   -0.0700   23.3650 C   0  0  0  0  0  0  0  0  0  0  0  0
    9.7960   -0.0540   25.3350 C   0  0  0  0  0  0  0  0  0  0  0  0
    8.4880    0.3320   25.6620 C   0  0  0  0  0  0  0  0  0  0  0  0
    6.7730   -0.0400   22.4020 N   0  0  0  0  0  0  0  0  0  0  0  0
    7.4920    0.3240   24.6750 C   0  0  0  0  0  0  0  0  0  0  0  0
    6.8590    0.2380   21.0660 C   0  0  0  0  0  0  0  0  0  0  0  0
    7.8820    0.3780   20.4190 O   0  0  0  0  0  0  0  0  0  0  0  0
    5.6040    0.3660   20.5410 N   0  0  0  0  0  0  0  0  0  0  0  0
    5.2760    0.9270   19.2900 C   0  0  0  0  0  0  0  0  0  0  0  0
    5.9830    0.6200   18.1080 C   0  0  0  0  0  0  0  0  0  0  0  0
    4.2630    1.8910   19.2500 C   0  0  0  0  0  0  0  0  0  0  0  0
    5.7450    1.2280   16.9260 N   0  0  0  0  0  0  0  0  0  0  0  0
    4.0240    2.5310   18.0310 C   0  0  0  0  0  0  0  0  0  0  0  0
    4.8070    2.2050   16.9180 C   0  0  0  0  0  0  0  0  0  0  0  0
  1  2  1  0
  2  3  1  0
  3  4  1  6
  3  5  1  0
  5  8  2  0
  5  6  1  0
  6  7  2  0
  7 10  1  0
  7 11  1  0
  8  9  1  0
  9 11  2  0
 10 12  1  0
 12 13  2  0
 12 14  1  0
 14 15  1  0
 15 16  2  0
 15 17  1  0
 16 18  1  0
 17 19  2  0
 18 20  2  0
 19 20  1  0
M  END
>  <original SMILES>  (460) 
CCC(O)c1cccc(NC(=O)Nc2cccnc2)c1

>  <AutoDock Predicted Affinity>  (460) 
-5.364453

>  <ref_pdb>  (460) 
x0434_0

>  <ref_mols>  (460) 
x0434_0

>  <creator>  (460) 
Will Poole

>  <energy minimised>  (460) 
True

$$$$
WPC2849_minimised.pdb
     RDKit          3D

 21 22  0  0  1  0  0  0  0  0999 V2000
   15.5080    0.3330   20.0060 C   0  0  0  0  0  0  0  0  0  0  0  0
   14.3970   -0.7290   20.0200 C   0  0  0  0  0  0  0  0  0  0  0  0
   13.1280   -0.3200   20.7940 C   0  0  0  0  0  0  0  0  0  0  0  0
   13.1570   -0.5900   22.3080 C   0  0  2  0  0  0  0  0  0  0  0  0
   13.2170   -2.0300   22.5550 N   0  0  0  0  0  0  0  0  0  0  0  0
   11.9150    0.0070   22.9530 C   0  0  0  0  0  0  0  0  0  0  0  0
   10.6330   -0.3370   22.4810 C   0  0  0  0  0  0  0  0  0  0  0  0
    9.4940    0.3030   22.9850 C   0  0  0  0  0  0  0  0  0  0  0  0
   12.0340    0.9850   23.9550 C   0  0  0  0  0  0  0  0  0  0  0  0
   10.8870    1.5980   24.4870 C   0  0  0  0  0  0  0  0  0  0  0  0
    8.2310    0.0680   22.4100 N   0  0  0  0  0  0  0  0  0  0  0  0
    9.6170    1.2560   24.0030 C   0  0  0  0  0  0  0  0  0  0  0  0
    7.9300    0.2430   21.0860 C   0  0  0  0  0  0  0  0  0  0  0  0
    8.7450    0.4480   20.2060 O   0  0  0  0  0  0  0  0  0  0  0  0
    6.5820    0.2070   20.8630 N   0  0  0  0  0  0  0  0  0  0  0  0
    5.9320    0.6560   19.6920 C   0  0  0  0  0  0  0  0  0  0  0  0
    6.3370    0.2610   18.3980 C   0  0  0  0  0  0  0  0  0  0  0  0
    4.9050    1.5980   19.8260 C   0  0  0  0  0  0  0  0  0  0  0  0
    5.7770    0.7450   17.2680 N   0  0  0  0  0  0  0  0  0  0  0  0
    4.3450    2.1220   18.6570 C   0  0  0  0  0  0  0  0  0  0  0  0
    4.8240    1.6950   17.4110 C   0  0  0  0  0  0  0  0  0  0  0  0
  1  2  1  0
  2  3  1  0
  3  4  1  0
  4  5  1  6
  4  6  1  0
  6  9  2  0
  6  7  1  0
  7  8  2  0
  8 11  1  0
  8 12  1  0
  9 10  1  0
 10 12  2  0
 11 13  1  0
 13 14  2  0
 13 15  1  0
 15 16  1  0
 16 17  2  0
 16 18  1  0
 17 19  1  0
 18 20  2  0
 19 21  2  0
 20 21  1  0
M  END
>  <original SMILES>  (461) 
CCCC(N)c1cccc(NC(=O)Nc2cccnc2)c1

>  <AutoDock Predicted Affinity>  (461) 
-5.53035

>  <ref_pdb>  (461) 
x0434_0

>  <ref_mols>  (461) 
x0434_0

>  <creator>  (461) 
Will Poole

>  <energy minimised>  (461) 
True

$$$$
WPC2870_minimised.pdb
     RDKit          3D

 21 22  0  0  1  0  0  0  0  0999 V2000
   15.7830    0.5530   18.3550 C   0  0  0  0  0  0  0  0  0  0  0  0
   15.4740   -0.2940   19.6070 C   0  0  0  0  0  0  0  0  0  0  0  0
   14.1310    0.0500   20.2890 C   0  0  0  0  0  0  0  0  0  0  0  0
   13.9000   -0.5560   21.6820 C   0  0  2  0  0  0  0  0  0  0  0  0
   13.7450   -1.9620   21.5890 O   0  0  0  0  0  0  0  0  0  0  0  0
   12.6870    0.0840   22.3460 C   0  0  0  0  0  0  0  0  0  0  0  0
   11.3700   -0.3280   22.0500 C   0  0  0  0  0  0  0  0  0  0  0  0
   10.2740    0.3130   22.6550 C   0  0  0  0  0  0  0  0  0  0  0  0
   12.8860    1.1680   23.2220 C   0  0  0  0  0  0  0  0  0  0  0  0
   11.7880    1.8140   23.8110 C   0  0  0  0  0  0  0  0  0  0  0  0
    8.9470   -0.0180   22.3060 N   0  0  0  0  0  0  0  0  0  0  0  0
   10.4850    1.3740   23.5450 C   0  0  0  0  0  0  0  0  0  0  0  0
    8.3970    0.2420   21.0810 C   0  0  0  0  0  0  0  0  0  0  0  0
    9.0440    0.6100   20.1260 O   0  0  0  0  0  0  0  0  0  0  0  0
    7.0360    0.1000   21.0200 N   0  0  0  0  0  0  0  0  0  0  0  0
    6.2480    0.5140   19.9170 C   0  0  0  0  0  0  0  0  0  0  0  0
    6.5300    0.0920   18.5980 C   0  0  0  0  0  0  0  0  0  0  0  0
    5.2360    1.4620   20.1200 C   0  0  0  0  0  0  0  0  0  0  0  0
    5.8620    0.5410   17.5130 N   0  0  0  0  0  0  0  0  0  0  0  0
    4.5690    1.9570   18.9930 C   0  0  0  0  0  0  0  0  0  0  0  0
    4.9230    1.4920   17.7170 C   0  0  0  0  0  0  0  0  0  0  0  0
  1  2  1  0
  2  3  1  0
  3  4  1  0
  4  5  1  6
  4  6  1  0
  6  9  2  0
  6  7  1  0
  7  8  2  0
  8 11  1  0
  8 12  1  0
  9 10  1  0
 10 12  2  0
 11 13  1  0
 13 14  2  0
 13 15  1  0
 15 16  1  0
 16 17  2  0
 16 18  1  0
 17 19  1  0
 18 20  2  0
 19 21  2  0
 20 21  1  0
M  END
>  <original SMILES>  (462) 
CCCC(O)c1cccc(NC(=O)Nc2cccnc2)c1

>  <AutoDock Predicted Affinity>  (462) 
-5.865025

>  <ref_pdb>  (462) 
x0434_0

>  <ref_mols>  (462) 
x0434_0

>  <creator>  (462) 
Will Poole

>  <energy minimised>  (462) 
True

$$$$
WPC2884_minimised.pdb
     RDKit          3D

 21 22  0  0  0  0  0  0  0  0999 V2000
   16.5530    0.9370   19.6560 C   0  0  0  0  0  0  0  0  0  0  0  0
   15.1390    0.4890   19.3080 C   0  0  0  0  0  0  0  0  0  0  0  0
   14.4750   -0.5570   20.2280 C   0  0  0  0  0  0  0  0  0  0  0  0
   13.8920    0.0160   21.5450 C   0  0  0  0  0  0  0  0  0  0  0  0
   12.7740   -0.9000   22.1010 C   0  0  0  0  0  0  0  0  0  0  0  0
   11.6340   -0.1460   22.7700 C   0  0  0  0  0  0  0  0  0  0  0  0
   10.3310   -0.2620   22.2510 C   0  0  0  0  0  0  0  0  0  0  0  0
    9.2550    0.3950   22.8680 C   0  0  0  0  0  0  0  0  0  0  0  0
   11.8540    0.6590   23.9010 C   0  0  0  0  0  0  0  0  0  0  0  0
   10.7750    1.3100   24.5210 C   0  0  0  0  0  0  0  0  0  0  0  0
    7.9450    0.2990   22.3510 N   0  0  0  0  0  0  0  0  0  0  0  0
    9.4760    1.1690   24.0140 C   0  0  0  0  0  0  0  0  0  0  0  0
    7.5810    0.5070   21.0500 C   0  0  0  0  0  0  0  0  0  0  0  0
    8.3590    0.7030   20.1390 O   0  0  0  0  0  0  0  0  0  0  0  0
    6.2260    0.4870   20.8650 N   0  0  0  0  0  0  0  0  0  0  0  0
    5.5650    0.9000   19.6840 C   0  0  0  0  0  0  0  0  0  0  0  0
    5.9740    0.4700   18.4010 C   0  0  0  0  0  0  0  0  0  0  0  0
    4.5440    1.8520   19.7890 C   0  0  0  0  0  0  0  0  0  0  0  0
    5.4270    0.9270   17.2550 N   0  0  0  0  0  0  0  0  0  0  0  0
    4.0010    2.3540   18.6020 C   0  0  0  0  0  0  0  0  0  0  0  0
    4.4850    1.8930   17.3700 C   0  0  0  0  0  0  0  0  0  0  0  0
  1  2  1  0
  2  3  1  0
  3  4  1  0
  4  5  1  0
  5  6  1  0
  6  9  2  0
  6  7  1  0
  7  8  2  0
  8 11  1  0
  8 12  1  0
  9 10  1  0
 10 12  2  0
 11 13  1  0
 13 14  2  0
 13 15  1  0
 15 16  1  0
 16 17  2  0
 16 18  1  0
 17 19  1  0
 18 20  2  0
 19 21  2  0
 20 21  1  0
M  END
>  <original SMILES>  (463) 
CCCCCc1cccc(NC(=O)Nc2cccnc2)c1

>  <AutoDock Predicted Affinity>  (463) 
-5.73487

>  <ref_pdb>  (463) 
x0434_0

>  <ref_mols>  (463) 
x0434_0

>  <creator>  (463) 
Will Poole

>  <energy minimised>  (463) 
True

$$$$
WPC2898_minimised.pdb
     RDKit          3D

 22 23  0  0  0  0  0  0  0  0999 V2000
   16.9120    1.1660   18.1870 C   0  0  0  0  0  0  0  0  0  0  0  0
   15.5310    0.5600   18.3640 C   0  0  0  0  0  0  0  0  0  0  0  0
   15.3730    0.0090   19.7960 C   0  0  0  0  0  0  0  0  0  0  0  0
   14.2360   -1.0140   19.9340 C   0  0  0  0  0  0  0  0  0  0  0  0
   13.0990   -0.5840   20.7470 N   0  0  0  0  0  0  0  0  0  0  0  0
   13.1770   -0.6520   22.2040 C   0  0  0  0  0  0  0  0  0  0  0  0
   11.9240   -0.0460   22.8270 C   0  0  0  0  0  0  0  0  0  0  0  0
   10.6380   -0.3790   22.3480 C   0  0  0  0  0  0  0  0  0  0  0  0
    9.4930    0.2120   22.9080 C   0  0  0  0  0  0  0  0  0  0  0  0
   12.0410    0.8900   23.8700 C   0  0  0  0  0  0  0  0  0  0  0  0
   10.8930    1.4670   24.4390 C   0  0  0  0  0  0  0  0  0  0  0  0
    8.2050   -0.0440   22.3930 N   0  0  0  0  0  0  0  0  0  0  0  0
    9.6210    1.1210   23.9650 C   0  0  0  0  0  0  0  0  0  0  0  0
    7.8100    0.2000   21.1060 C   0  0  0  0  0  0  0  0  0  0  0  0
    8.5650    0.4860   20.2000 O   0  0  0  0  0  0  0  0  0  0  0  0
    6.4550    0.1270   20.9280 N   0  0  0  0  0  0  0  0  0  0  0  0
    5.7750    0.5890   19.7750 C   0  0  0  0  0  0  0  0  0  0  0  0
    6.1650    0.2100   18.4700 C   0  0  0  0  0  0  0  0  0  0  0  0
    4.7610    1.5420   19.9290 C   0  0  0  0  0  0  0  0  0  0  0  0
    5.5960    0.7060   17.3500 N   0  0  0  0  0  0  0  0  0  0  0  0
    4.2010    2.0910   18.7690 C   0  0  0  0  0  0  0  0  0  0  0  0
    4.6560    1.6660   17.5130 C   0  0  0  0  0  0  0  0  0  0  0  0
  1  2  1  0
  2  3  1  0
  3  4  1  0
  4  5  1  0
  5  6  1  0
  6  7  1  0
  7 10  2  0
  7  8  1  0
  8  9  2  0
  9 12  1  0
  9 13  1  0
 10 11  1  0
 11 13  2  0
 12 14  1  0
 14 15  2  0
 14 16  1  0
 16 17  1  0
 17 18  2  0
 17 19  1  0
 18 20  1  0
 19 21  2  0
 20 22  2  0
 21 22  1  0
M  END
>  <original SMILES>  (464) 
CCCCNCc1cccc(NC(=O)Nc2cccnc2)c1

>  <AutoDock Predicted Affinity>  (464) 
-6.107585

>  <ref_pdb>  (464) 
x0434_0

>  <ref_mols>  (464) 
x0434_0

>  <creator>  (464) 
Will Poole

>  <energy minimised>  (464) 
True

$$$$
WPC2716_minimised.pdb
     RDKit          3D

 21 22  0  0  0  0  0  0  0  0999 V2000
   16.3540    1.4980   18.8390 C   0  0  0  0  0  0  0  0  0  0  0  0
   16.0250    0.5080   19.9620 C   0  0  0  0  0  0  0  0  0  0  0  0
   14.7450   -0.3360   19.7880 C   0  0  0  0  0  0  0  0  0  0  0  0
   13.5550    0.2010   20.6050 C   0  0  0  0  0  0  0  0  0  0  0  0
   13.7090   -0.2840   22.3660 S   0  0  0  0  0  0  0  0  0  0  0  0
   12.0970   -0.0220   23.0900 C   0  0  0  0  0  0  0  0  0  0  0  0
   10.8990   -0.1650   22.3650 C   0  0  0  0  0  0  0  0  0  0  0  0
    9.6590    0.0030   23.0080 C   0  0  0  0  0  0  0  0  0  0  0  0
   12.0410    0.2600   24.4610 C   0  0  0  0  0  0  0  0  0  0  0  0
   10.8060    0.3800   25.1160 C   0  0  0  0  0  0  0  0  0  0  0  0
    8.4290   -0.1030   22.3240 N   0  0  0  0  0  0  0  0  0  0  0  0
    9.6170    0.2620   24.3850 C   0  0  0  0  0  0  0  0  0  0  0  0
    8.1390    0.2370   21.0310 C   0  0  0  0  0  0  0  0  0  0  0  0
    8.9440    0.5600   20.1780 O   0  0  0  0  0  0  0  0  0  0  0  0
    6.7910    0.1970   20.8100 N   0  0  0  0  0  0  0  0  0  0  0  0
    6.1090    0.6820   19.6720 C   0  0  0  0  0  0  0  0  0  0  0  0
    6.4670    0.3050   18.3600 C   0  0  0  0  0  0  0  0  0  0  0  0
    5.0730    1.6040   19.8580 C   0  0  0  0  0  0  0  0  0  0  0  0
    5.8450    0.7810   17.2600 N   0  0  0  0  0  0  0  0  0  0  0  0
    4.4530    2.1250   18.7170 C   0  0  0  0  0  0  0  0  0  0  0  0
    4.8790    1.7090   17.4480 C   0  0  0  0  0  0  0  0  0  0  0  0
  1  2  1  0
  2  3  1  0
  3  4  1  0
  4  5  1  0
  5  6  1  0
  6  9  2  0
  6  7  1  0
  7  8  2  0
  8 11  1  0
  8 12  1  0
  9 10  1  0
 10 12  2  0
 11 13  1  0
 13 14  2  0
 13 15  1  0
 15 16  1  0
 16 17  2  0
 16 18  1  0
 17 19  1  0
 18 20  2  0
 19 21  2  0
 20 21  1  0
M  END
>  <original SMILES>  (465) 
CCCCSc1cccc(NC(=O)Nc2cccnc2)c1

>  <AutoDock Predicted Affinity>  (465) 
-5.57962

>  <ref_pdb>  (465) 
x0434_0

>  <ref_mols>  (465) 
x0434_0

>  <creator>  (465) 
Will Poole

>  <energy minimised>  (465) 
True

$$$$
WPC2900_minimised.pdb
     RDKit          3D

 20 21  0  0  0  0  0  0  0  0999 V2000
   15.0340    0.2800   20.5170 C   0  0  0  0  0  0  0  0  0  0  0  0
   14.0730   -0.7660   21.1220 C   0  0  0  0  0  0  0  0  0  0  0  0
   12.9670   -0.1610   22.0160 C   0  0  0  0  0  0  0  0  0  0  0  0
   12.0130   -1.2590   22.5380 C   0  0  0  0  0  0  0  0  0  0  0  0
   10.7840   -0.6840   23.2190 C   0  0  0  0  0  0  0  0  0  0  0  0
    9.6330   -0.4520   22.4520 C   0  0  0  0  0  0  0  0  0  0  0  0
    8.4720    0.0660   23.0460 C   0  0  0  0  0  0  0  0  0  0  0  0
   10.7640   -0.3950   24.5950 C   0  0  0  0  0  0  0  0  0  0  0  0
    9.6020    0.1090   25.1980 C   0  0  0  0  0  0  0  0  0  0  0  0
    7.2970    0.2880   22.2990 N   0  0  0  0  0  0  0  0  0  0  0  0
    8.4550    0.3370   24.4230 C   0  0  0  0  0  0  0  0  0  0  0  0
    7.1780    0.6160   20.9760 C   0  0  0  0  0  0  0  0  0  0  0  0
    8.0920    0.7510   20.1830 O   0  0  0  0  0  0  0  0  0  0  0  0
    5.8640    0.7560   20.6340 N   0  0  0  0  0  0  0  0  0  0  0  0
    5.3560    1.1990   19.3950 C   0  0  0  0  0  0  0  0  0  0  0  0
    5.8990    0.7820   18.1600 C   0  0  0  0  0  0  0  0  0  0  0  0
    4.3170    2.1350   19.4050 C   0  0  0  0  0  0  0  0  0  0  0  0
    5.4740    1.2510   16.9690 N   0  0  0  0  0  0  0  0  0  0  0  0
    3.8940    2.6420   18.1740 C   0  0  0  0  0  0  0  0  0  0  0  0
    4.5160    2.2090   16.9970 C   0  0  0  0  0  0  0  0  0  0  0  0
  1  2  1  0
  2  3  1  0
  3  4  1  0
  4  5  1  0
  5  8  2  0
  5  6  1  0
  6  7  2  0
  7 10  1  0
  7 11  1  0
  8  9  1  0
  9 11  2  0
 10 12  1  0
 12 13  2  0
 12 14  1  0
 14 15  1  0
 15 16  2  0
 15 17  1  0
 16 18  1  0
 17 19  2  0
 18 20  2  0
 19 20  1  0
M  END
>  <original SMILES>  (466) 
CCCCc1cccc(NC(=O)Nc2cccnc2)c1

>  <AutoDock Predicted Affinity>  (466) 
-5.826345

>  <ref_pdb>  (466) 
x0434_0

>  <ref_mols>  (466) 
x0434_0

>  <creator>  (466) 
Will Poole

>  <energy minimised>  (466) 
True

$$$$
WPC2767_minimised.pdb
     RDKit          3D

 22 23  0  0  0  0  0  0  0  0999 V2000
   16.1490    1.8810   20.0660 C   0  0  0  0  0  0  0  0  0  0  0  0
   15.4480    2.0660   21.4380 C   0  0  0  0  0  0  0  0  0  0  0  0
   14.1520    1.2580   21.5940 C   0  0  0  0  0  0  0  0  0  0  0  0
   14.3040   -0.0810   21.0060 N   0  0  0  0  0  0  0  0  0  0  0  0
   13.0570   -0.8550   20.9870 C   0  0  0  0  0  0  0  0  0  0  0  0
   12.6320   -1.3040   22.3930 C   0  0  0  0  0  0  0  0  0  0  0  0
   11.4790   -0.4890   22.9530 C   0  0  0  0  0  0  0  0  0  0  0  0
   10.2140   -0.5900   22.3520 C   0  0  0  0  0  0  0  0  0  0  0  0
    9.1280    0.1300   22.8680 C   0  0  0  0  0  0  0  0  0  0  0  0
   11.6480    0.3520   24.0670 C   0  0  0  0  0  0  0  0  0  0  0  0
   10.5540    1.0550   24.5940 C   0  0  0  0  0  0  0  0  0  0  0  0
    7.8680    0.0680   22.2480 N   0  0  0  0  0  0  0  0  0  0  0  0
    9.2910    0.9380   23.9990 C   0  0  0  0  0  0  0  0  0  0  0  0
    7.6190    0.2990   20.9260 C   0  0  0  0  0  0  0  0  0  0  0  0
    8.4680    0.4680   20.0700 O   0  0  0  0  0  0  0  0  0  0  0  0
    6.2780    0.3420   20.6770 N   0  0  0  0  0  0  0  0  0  0  0  0
    5.6690    0.8270   19.5010 C   0  0  0  0  0  0  0  0  0  0  0  0
    6.1180    0.4650   18.2120 C   0  0  0  0  0  0  0  0  0  0  0  0
    4.6430    1.7700   19.6290 C   0  0  0  0  0  0  0  0  0  0  0  0
    5.6000    0.9830   17.0780 N   0  0  0  0  0  0  0  0  0  0  0  0
    4.1280    2.3300   18.4560 C   0  0  0  0  0  0  0  0  0  0  0  0
    4.6490    1.9360   17.2160 C   0  0  0  0  0  0  0  0  0  0  0  0
  1  2  1  0
  2  3  1  0
  3  4  1  0
  4  5  1  0
  5  6  1  0
  6  7  1  0
  7 10  2  0
  7  8  1  0
  8  9  2  0
  9 12  1  0
  9 13  1  0
 10 11  1  0
 11 13  2  0
 12 14  1  0
 14 15  2  0
 14 16  1  0
 16 17  1  0
 17 18  2  0
 17 19  1  0
 18 20  1  0
 19 21  2  0
 20 22  2  0
 21 22  1  0
M  END
>  <original SMILES>  (467) 
CCCNCCc1cccc(NC(=O)Nc2cccnc2)c1

>  <AutoDock Predicted Affinity>  (467) 
-5.45826

>  <ref_pdb>  (467) 
x0434_0

>  <ref_mols>  (467) 
x0434_0

>  <creator>  (467) 
Will Poole

>  <energy minimised>  (467) 
True

$$$$
WPC2821_minimised.pdb
     RDKit          3D

 21 22  0  0  0  0  0  0  0  0999 V2000
   15.5770    1.1820   17.8390 C   0  0  0  0  0  0  0  0  0  0  0  0
   15.7720    0.6730   19.2830 C   0  0  0  0  0  0  0  0  0  0  0  0
   14.7410   -0.3910   19.7130 C   0  0  0  0  0  0  0  0  0  0  0  0
   14.2700   -0.1710   21.0920 N   0  0  0  0  0  0  0  0  0  0  0  0
   13.2500   -1.1250   21.5610 C   0  0  0  0  0  0  0  0  0  0  0  0
   12.1630   -0.4430   22.3860 C   0  0  0  0  0  0  0  0  0  0  0  0
   10.8030   -0.6470   22.0750 C   0  0  0  0  0  0  0  0  0  0  0  0
    9.7950    0.0270   22.7860 C   0  0  0  0  0  0  0  0  0  0  0  0
   12.4960    0.4470   23.4250 C   0  0  0  0  0  0  0  0  0  0  0  0
   11.4860    1.1250   24.1260 C   0  0  0  0  0  0  0  0  0  0  0  0
    8.4410   -0.1030   22.4100 N   0  0  0  0  0  0  0  0  0  0  0  0
   10.1380    0.9060   23.8190 C   0  0  0  0  0  0  0  0  0  0  0  0
    7.9220    0.3610   21.2330 C   0  0  0  0  0  0  0  0  0  0  0  0
    8.5850    0.9060   20.3760 O   0  0  0  0  0  0  0  0  0  0  0  0
    6.5790    0.1520   21.0700 N   0  0  0  0  0  0  0  0  0  0  0  0
    5.8550    0.5750   19.9270 C   0  0  0  0  0  0  0  0  0  0  0  0
    6.2390    0.1740   18.6270 C   0  0  0  0  0  0  0  0  0  0  0  0
    4.8290    1.5170   20.0690 C   0  0  0  0  0  0  0  0  0  0  0  0
    5.6570    0.6350   17.4990 N   0  0  0  0  0  0  0  0  0  0  0  0
    4.2520    2.0300   18.9000 C   0  0  0  0  0  0  0  0  0  0  0  0
    4.7030    1.5820   17.6490 C   0  0  0  0  0  0  0  0  0  0  0  0
  1  2  1  0
  2  3  1  0
  3  4  1  0
  4  5  1  0
  5  6  1  0
  6  9  2  0
  6  7  1  0
  7  8  2  0
  8 11  1  0
  8 12  1  0
  9 10  1  0
 10 12  2  0
 11 13  1  0
 13 14  2  0
 13 15  1  0
 15 16  1  0
 16 17  2  0
 16 18  1  0
 17 19  1  0
 18 20  2  0
 19 21  2  0
 20 21  1  0
M  END
>  <original SMILES>  (468) 
CCCNCc1cccc(NC(=O)Nc2cccnc2)c1

>  <AutoDock Predicted Affinity>  (468) 
-6.035335

>  <ref_pdb>  (468) 
x0434_0

>  <ref_mols>  (468) 
x0434_0

>  <creator>  (468) 
Will Poole

>  <energy minimised>  (468) 
True

$$$$
WPC2894_minimised.pdb
     RDKit          3D

 20 21  0  0  0  0  0  0  0  0999 V2000
   15.2580    0.3290   20.2620 C   0  0  0  0  0  0  0  0  0  0  0  0
   14.2440   -0.6800   20.8570 C   0  0  0  0  0  0  0  0  0  0  0  0
   13.0220   -0.0440   21.5430 C   0  0  0  0  0  0  0  0  0  0  0  0
   13.4740    0.9830   23.0070 S   0  0  0  0  0  0  0  0  0  0  0  0
   11.9870    1.9470   23.1780 C   0  0  0  0  0  0  0  0  0  0  0  0
   10.7360    1.3210   23.0710 C   0  0  0  0  0  0  0  0  0  0  0  0
    9.5660    2.0870   23.0350 C   0  0  0  0  0  0  0  0  0  0  0  0
   12.0600    3.3450   23.2860 C   0  0  0  0  0  0  0  0  0  0  0  0
   10.8830    4.1120   23.3020 C   0  0  0  0  0  0  0  0  0  0  0  0
    8.3430    1.4730   22.6990 N   0  0  0  0  0  0  0  0  0  0  0  0
    9.6350    3.4810   23.1720 C   0  0  0  0  0  0  0  0  0  0  0  0
    8.0220    1.1020   21.4200 C   0  0  0  0  0  0  0  0  0  0  0  0
    8.8180    1.0800   20.5010 O   0  0  0  0  0  0  0  0  0  0  0  0
    6.6950    0.8120   21.2470 N   0  0  0  0  0  0  0  0  0  0  0  0
    6.0090    0.9480   20.0150 C   0  0  0  0  0  0  0  0  0  0  0  0
    6.4580    0.3610   18.8090 C   0  0  0  0  0  0  0  0  0  0  0  0
    4.9190    1.8260   19.9780 C   0  0  0  0  0  0  0  0  0  0  0  0
    5.8940    0.6140   17.6050 N   0  0  0  0  0  0  0  0  0  0  0  0
    4.3570    2.1150   18.7320 C   0  0  0  0  0  0  0  0  0  0  0  0
    4.8900    1.5210   17.5810 C   0  0  0  0  0  0  0  0  0  0  0  0
  1  2  1  0
  2  3  1  0
  3  4  1  0
  4  5  1  0
  5  8  2  0
  5  6  1  0
  6  7  2  0
  7 10  1  0
  7 11  1  0
  8  9  1  0
  9 11  2  0
 10 12  1  0
 12 13  2  0
 12 14  1  0
 14 15  1  0
 15 16  2  0
 15 17  1  0
 16 18  1  0
 17 19  2  0
 18 20  2  0
 19 20  1  0
M  END
>  <original SMILES>  (469) 
CCCSc1cccc(NC(=O)Nc2cccnc2)c1

>  <AutoDock Predicted Affinity>  (469) 
-5.94677

>  <ref_pdb>  (469) 
x0434_0

>  <ref_mols>  (469) 
x0434_0

>  <creator>  (469) 
Will Poole

>  <energy minimised>  (469) 
True

$$$$
WPC2715_minimised.pdb
     RDKit          3D

 19 20  0  0  0  0  0  0  0  0999 V2000
   13.7120   -1.1280   21.4080 C   0  0  0  0  0  0  0  0  0  0  0  0
   12.5540   -0.5520   22.2350 C   0  0  0  0  0  0  0  0  0  0  0  0
   11.6260   -1.6570   22.7760 C   0  0  0  0  0  0  0  0  0  0  0  0
   10.3990   -1.0420   23.4170 C   0  0  0  0  0  0  0  0  0  0  0  0
    9.2710   -0.8190   22.6190 C   0  0  0  0  0  0  0  0  0  0  0  0
    8.1410   -0.1810   23.1480 C   0  0  0  0  0  0  0  0  0  0  0  0
   10.3890   -0.6340   24.7620 C   0  0  0  0  0  0  0  0  0  0  0  0
    9.2470   -0.0260   25.3070 C   0  0  0  0  0  0  0  0  0  0  0  0
    7.0190    0.0830   22.3390 N   0  0  0  0  0  0  0  0  0  0  0  0
    8.1210    0.2000   24.4990 C   0  0  0  0  0  0  0  0  0  0  0  0
    7.0020    0.4130   21.0110 C   0  0  0  0  0  0  0  0  0  0  0  0
    7.9750    0.5040   20.2820 O   0  0  0  0  0  0  0  0  0  0  0  0
    5.7210    0.6230   20.5880 N   0  0  0  0  0  0  0  0  0  0  0  0
    5.3150    1.1180   19.3310 C   0  0  0  0  0  0  0  0  0  0  0  0
    5.9440    0.7380   18.1250 C   0  0  0  0  0  0  0  0  0  0  0  0
    4.2960    2.0750   19.2970 C   0  0  0  0  0  0  0  0  0  0  0  0
    5.6340    1.2760   16.9270 N   0  0  0  0  0  0  0  0  0  0  0  0
    3.9790    2.6400   18.0590 C   0  0  0  0  0  0  0  0  0  0  0  0
    4.6960    2.2520   16.9210 C   0  0  0  0  0  0  0  0  0  0  0  0
  1  2  1  0
  2  3  1  0
  3  4  1  0
  4  7  2  0
  4  5  1  0
  5  6  2  0
  6  9  1  0
  6 10  1  0
  7  8  1  0
  8 10  2  0
  9 11  1  0
 11 12  2  0
 11 13  1  0
 13 14  1  0
 14 15  2  0
 14 16  1  0
 15 17  1  0
 16 18  2  0
 17 19  2  0
 18 19  1  0
M  END
>  <original SMILES>  (470) 
CCCc1cccc(NC(=O)Nc2cccnc2)c1

>  <AutoDock Predicted Affinity>  (470) 
-5.56351

>  <ref_pdb>  (470) 
x0434_0

>  <ref_mols>  (470) 
x0434_0

>  <creator>  (470) 
Will Poole

>  <energy minimised>  (470) 
True

$$$$
WPC2875_minimised.pdb
     RDKit          3D

 21 22  0  0  0  0  0  0  0  0999 V2000
   16.6650    0.9550   19.4990 C   0  0  0  0  0  0  0  0  0  0  0  0
   15.2590    0.4110   19.2860 C   0  0  0  0  0  0  0  0  0  0  0  0
   14.8020   -0.5270   20.3190 N   0  0  0  0  0  0  0  0  0  0  0  0
   14.1170    0.0770   21.4800 C   0  0  0  0  0  0  0  0  0  0  0  0
   12.9770   -0.8490   21.9410 C   0  0  0  0  0  0  0  0  0  0  0  0
   11.8430   -0.1160   22.6460 C   0  0  0  0  0  0  0  0  0  0  0  0
   10.5210   -0.2830   22.1900 C   0  0  0  0  0  0  0  0  0  0  0  0
    9.4550    0.3750   22.8260 C   0  0  0  0  0  0  0  0  0  0  0  0
   12.0890    0.7380   23.7390 C   0  0  0  0  0  0  0  0  0  0  0  0
   11.0210    1.4000   24.3680 C   0  0  0  0  0  0  0  0  0  0  0  0
    8.1300    0.2440   22.3590 N   0  0  0  0  0  0  0  0  0  0  0  0
    9.7060    1.2080   23.9230 C   0  0  0  0  0  0  0  0  0  0  0  0
    7.7200    0.4620   21.0730 C   0  0  0  0  0  0  0  0  0  0  0  0
    8.4710    0.6870   20.1470 O   0  0  0  0  0  0  0  0  0  0  0  0
    6.3630    0.4230   20.9150 N   0  0  0  0  0  0  0  0  0  0  0  0
    5.6830    0.8330   19.7430 C   0  0  0  0  0  0  0  0  0  0  0  0
    6.0730    0.3940   18.4560 C   0  0  0  0  0  0  0  0  0  0  0  0
    4.6720    1.7940   19.8550 C   0  0  0  0  0  0  0  0  0  0  0  0
    5.5200    0.8540   17.3150 N   0  0  0  0  0  0  0  0  0  0  0  0
    4.1210    2.2970   18.6720 C   0  0  0  0  0  0  0  0  0  0  0  0
    4.5890    1.8290   17.4360 C   0  0  0  0  0  0  0  0  0  0  0  0
  1  2  1  0
  2  3  1  0
  3  4  1  0
  4  5  1  0
  5  6  1  0
  6  9  2  0
  6  7  1  0
  7  8  2  0
  8 11  1  0
  8 12  1  0
  9 10  1  0
 10 12  2  0
 11 13  1  0
 13 14  2  0
 13 15  1  0
 15 16  1  0
 16 17  2  0
 16 18  1  0
 17 19  1  0
 18 20  2  0
 19 21  2  0
 20 21  1  0
M  END
>  <original SMILES>  (471) 
CCNCCc1cccc(NC(=O)Nc2cccnc2)c1

>  <AutoDock Predicted Affinity>  (471) 
-5.261837

>  <ref_pdb>  (471) 
x0434_0

>  <ref_mols>  (471) 
x0434_0

>  <creator>  (471) 
Will Poole

>  <energy minimised>  (471) 
True

$$$$
WPC2883_minimised.pdb
     RDKit          3D

 20 21  0  0  0  0  0  0  0  0999 V2000
   15.9020    1.5460   19.2880 C   0  0  0  0  0  0  0  0  0  0  0  0
   15.2750    0.2310   19.7840 C   0  0  0  0  0  0  0  0  0  0  0  0
   14.5480    0.4230   21.0490 N   0  0  0  0  0  0  0  0  0  0  0  0
   13.6710   -0.6820   21.4800 C   0  0  0  0  0  0  0  0  0  0  0  0
   12.5300   -0.1520   22.3470 C   0  0  0  0  0  0  0  0  0  0  0  0
   11.1870   -0.4640   22.0480 C   0  0  0  0  0  0  0  0  0  0  0  0
   10.1330    0.1090   22.7830 C   0  0  0  0  0  0  0  0  0  0  0  0
   12.7990    0.7390   23.4030 C   0  0  0  0  0  0  0  0  0  0  0  0
   11.7440    1.3200   24.1240 C   0  0  0  0  0  0  0  0  0  0  0  0
    8.7840   -0.1090   22.4190 N   0  0  0  0  0  0  0  0  0  0  0  0
   10.4150    0.9940   23.8290 C   0  0  0  0  0  0  0  0  0  0  0  0
    8.2160    0.3520   21.2620 C   0  0  0  0  0  0  0  0  0  0  0  0
    8.8350    0.9310   20.3970 O   0  0  0  0  0  0  0  0  0  0  0  0
    6.8750    0.1060   21.1280 N   0  0  0  0  0  0  0  0  0  0  0  0
    6.1160    0.5130   19.9990 C   0  0  0  0  0  0  0  0  0  0  0  0
    6.4730    0.1130   18.6920 C   0  0  0  0  0  0  0  0  0  0  0  0
    5.0730    1.4340   20.1610 C   0  0  0  0  0  0  0  0  0  0  0  0
    5.8420    0.5450   17.5780 N   0  0  0  0  0  0  0  0  0  0  0  0
    4.4470    1.9210   19.0050 C   0  0  0  0  0  0  0  0  0  0  0  0
    4.8690    1.4680   17.7450 C   0  0  0  0  0  0  0  0  0  0  0  0
  1  2  1  0
  2  3  1  0
  3  4  1  0
  4  5  1  0
  5  8  2  0
  5  6  1  0
  6  7  2  0
  7 10  1  0
  7 11  1  0
  8  9  1  0
  9 11  2  0
 10 12  1  0
 12 13  2  0
 12 14  1  0
 14 15  1  0
 15 16  2  0
 15 17  1  0
 16 18  1  0
 17 19  2  0
 18 20  2  0
 19 20  1  0
M  END
>  <original SMILES>  (472) 
CCNCc1cccc(NC(=O)Nc2cccnc2)c1

>  <AutoDock Predicted Affinity>  (472) 
-5.71837

>  <ref_pdb>  (472) 
x0434_0

>  <ref_mols>  (472) 
x0434_0

>  <creator>  (472) 
Will Poole

>  <energy minimised>  (472) 
True

$$$$
WPC2732_minimised.pdb
     RDKit          3D

 21 22  0  0  0  0  0  0  0  0999 V2000
   16.6070    0.9570   19.4320 C   0  0  0  0  0  0  0  0  0  0  0  0
   15.1900    0.3860   19.4400 C   0  0  0  0  0  0  0  0  0  0  0  0
   14.9700   -0.4660   20.5780 O   0  0  0  0  0  0  0  0  0  0  0  0
   14.2110    0.1060   21.6670 C   0  0  0  0  0  0  0  0  0  0  0  0
   12.9520   -0.7620   21.8530 C   0  0  0  0  0  0  0  0  0  0  0  0
   11.8020   -0.0660   22.5730 C   0  0  0  0  0  0  0  0  0  0  0  0
   10.4850   -0.2500   22.1110 C   0  0  0  0  0  0  0  0  0  0  0  0
    9.4020    0.3540   22.7740 C   0  0  0  0  0  0  0  0  0  0  0  0
   12.0230    0.7400   23.7060 C   0  0  0  0  0  0  0  0  0  0  0  0
   10.9390    1.3420   24.3660 C   0  0  0  0  0  0  0  0  0  0  0  0
    8.0790    0.2060   22.3080 N   0  0  0  0  0  0  0  0  0  0  0  0
    9.6310    1.1430   23.9070 C   0  0  0  0  0  0  0  0  0  0  0  0
    7.6600    0.4400   21.0280 C   0  0  0  0  0  0  0  0  0  0  0  0
    8.4020    0.6860   20.1010 O   0  0  0  0  0  0  0  0  0  0  0  0
    6.3020    0.3930   20.8790 N   0  0  0  0  0  0  0  0  0  0  0  0
    5.6160    0.8210   19.7180 C   0  0  0  0  0  0  0  0  0  0  0  0
    6.0010    0.4000   18.4250 C   0  0  0  0  0  0  0  0  0  0  0  0
    4.6110    1.7860   19.8480 C   0  0  0  0  0  0  0  0  0  0  0  0
    5.4480    0.8790   17.2910 N   0  0  0  0  0  0  0  0  0  0  0  0
    4.0590    2.3100   18.6730 C   0  0  0  0  0  0  0  0  0  0  0  0
    4.5200    1.8550   17.4290 C   0  0  0  0  0  0  0  0  0  0  0  0
  1  2  1  0
  2  3  1  0
  3  4  1  0
  4  5  1  0
  5  6  1  0
  6  9  2  0
  6  7  1  0
  7  8  2  0
  8 11  1  0
  8 12  1  0
  9 10  1  0
 10 12  2  0
 11 13  1  0
 13 14  2  0
 13 15  1  0
 15 16  1  0
 16 17  2  0
 16 18  1  0
 17 19  1  0
 18 20  2  0
 19 21  2  0
 20 21  1  0
M  END
>  <original SMILES>  (473) 
CCOCCc1cccc(NC(=O)Nc2cccnc2)c1

>  <AutoDock Predicted Affinity>  (473) 
-5.172685

>  <ref_pdb>  (473) 
x0434_0

>  <ref_mols>  (473) 
x0434_0

>  <creator>  (473) 
Will Poole

>  <energy minimised>  (473) 
True

$$$$
WPC2787_minimised.pdb
     RDKit          3D

 20 21  0  0  0  0  0  0  0  0999 V2000
   15.3060    0.5370   19.8750 C   0  0  0  0  0  0  0  0  0  0  0  0
   14.3330    0.5480   21.0750 C   0  0  0  0  0  0  0  0  0  0  0  0
   13.2140   -0.9140   21.0600 S   0  0  1  0  0  0  0  0  0  0  0  0
   14.2510   -1.7610   22.0820 O   0  0  0  0  0  0  0  0  0  0  0  0
   11.9280   -0.1980   22.0960 C   0  0  0  0  0  0  0  0  0  0  0  0
   10.5910   -0.3660   21.7140 C   0  0  0  0  0  0  0  0  0  0  0  0
    9.5550    0.1720   22.4960 C   0  0  0  0  0  0  0  0  0  0  0  0
   12.2330    0.4970   23.2780 C   0  0  0  0  0  0  0  0  0  0  0  0
   11.1980    1.0370   24.0580 C   0  0  0  0  0  0  0  0  0  0  0  0
    8.2030    0.0560   22.1100 N   0  0  0  0  0  0  0  0  0  0  0  0
    9.8610    0.8690   23.6720 C   0  0  0  0  0  0  0  0  0  0  0  0
    7.7030    0.3020   20.8620 C   0  0  0  0  0  0  0  0  0  0  0  0
    8.3720    0.5340   19.8770 O   0  0  0  0  0  0  0  0  0  0  0  0
    6.3370    0.3040   20.8090 N   0  0  0  0  0  0  0  0  0  0  0  0
    5.5990    0.7580   19.6910 C   0  0  0  0  0  0  0  0  0  0  0  0
    5.9080    0.3330   18.3790 C   0  0  0  0  0  0  0  0  0  0  0  0
    4.6300    1.7520   19.8720 C   0  0  0  0  0  0  0  0  0  0  0  0
    5.3200    0.8390   17.2750 N   0  0  0  0  0  0  0  0  0  0  0  0
    4.0400    2.3010   18.7260 C   0  0  0  0  0  0  0  0  0  0  0  0
    4.4320    1.8420   17.4580 C   0  0  0  0  0  0  0  0  0  0  0  0
  1  2  1  0
  3  2  1  0
  3  4  1  1
  3  5  1  0
  5  8  2  0
  5  6  1  0
  6  7  2  0
  7 10  1  0
  7 11  1  0
  8  9  1  0
  9 11  2  0
 10 12  1  0
 12 13  2  0
 12 14  1  0
 14 15  1  0
 15 16  2  0
 15 17  1  0
 16 18  1  0
 17 19  2  0
 18 20  2  0
 19 20  1  0
M  END
>  <original SMILES>  (474) 
CC[SH](O)c1cccc(NC(=O)Nc2cccnc2)c1

>  <AutoDock Predicted Affinity>  (474) 
-5.48028

>  <ref_pdb>  (474) 
x0434_0

>  <ref_mols>  (474) 
x0434_0

>  <creator>  (474) 
Will Poole

>  <energy minimised>  (474) 
True

$$$$
WPC2690_minimised.pdb
     RDKit          3D

 18 19  0  0  0  0  0  0  0  0999 V2000
   13.8280   -1.0540   20.6950 C   0  0  0  0  0  0  0  0  0  0  0  0
   13.4450   -1.1340   22.1750 C   0  0  0  0  0  0  0  0  0  0  0  0
   12.3740   -0.1210   22.5380 C   0  0  0  0  0  0  0  0  0  0  0  0
   11.0200   -0.4200   22.3090 C   0  0  0  0  0  0  0  0  0  0  0  0
   10.0260    0.5190   22.6240 C   0  0  0  0  0  0  0  0  0  0  0  0
   12.7270    1.1290   23.0770 C   0  0  0  0  0  0  0  0  0  0  0  0
   11.7330    2.0720   23.3820 C   0  0  0  0  0  0  0  0  0  0  0  0
    8.6730    0.2590   22.3200 N   0  0  0  0  0  0  0  0  0  0  0  0
   10.3820    1.7630   23.1640 C   0  0  0  0  0  0  0  0  0  0  0  0
    8.1660    0.2630   21.0500 C   0  0  0  0  0  0  0  0  0  0  0  0
    8.8580    0.3210   20.0560 O   0  0  0  0  0  0  0  0  0  0  0  0
    6.7990    0.2520   20.9890 N   0  0  0  0  0  0  0  0  0  0  0  0
    6.0480    0.6250   19.8450 C   0  0  0  0  0  0  0  0  0  0  0  0
    6.3600    0.1670   18.5440 C   0  0  0  0  0  0  0  0  0  0  0  0
    5.0410    1.5860   19.9980 C   0  0  0  0  0  0  0  0  0  0  0  0
    5.7490    0.6210   17.4280 N   0  0  0  0  0  0  0  0  0  0  0  0
    4.4180    2.0690   18.8410 C   0  0  0  0  0  0  0  0  0  0  0  0
    4.8240    1.5940   17.5870 C   0  0  0  0  0  0  0  0  0  0  0  0
  1  2  1  0
  2  3  1  0
  3  4  2  0
  3  6  1  0
  4  5  1  0
  5  9  2  0
  5  8  1  0
  6  7  2  0
  7  9  1  0
  8 10  1  0
 10 11  2  0
 10 12  1  0
 12 13  1  0
 13 14  2  0
 13 15  1  0
 14 16  1  0
 15 17  2  0
 16 18  2  0
 17 18  1  0
M  END
>  <original SMILES>  (475) 
CCc1cccc(NC(=O)Nc2cccnc2)c1

>  <AutoDock Predicted Affinity>  (475) 
-6.05496

>  <ref_pdb>  (475) 
x0434_0

>  <ref_mols>  (475) 
x0434_0

>  <creator>  (475) 
Will Poole

>  <energy minimised>  (475) 
True

$$$$
WPC2763_minimised.pdb
     RDKit          3D

 23 24  0  0  1  0  0  0  0  0999 V2000
   14.3010    1.5770   22.3360 C   0  0  0  0  0  0  0  0  0  0  0  0
   14.7810    0.5310   21.4060 N   0  0  0  0  0  0  0  0  0  0  0  0
   15.6430    0.9890   20.2960 C   0  0  0  0  0  0  0  0  0  0  0  0
   13.9920   -0.6990   21.1540 C   0  0  0  0  0  0  0  0  0  0  0  0
   12.4920   -0.6240   21.5230 C   0  0  0  0  0  0  0  0  0  0  0  0
   12.2270   -1.0250   22.9850 C   0  0  2  0  0  0  0  0  0  0  0  0
   12.3750   -2.4320   23.0980 O   0  0  0  0  0  0  0  0  0  0  0  0
   10.8590   -0.6300   23.5210 C   0  0  0  0  0  0  0  0  0  0  0  0
    9.7310   -0.5770   22.6820 C   0  0  0  0  0  0  0  0  0  0  0  0
    8.4880   -0.1720   23.1890 C   0  0  0  0  0  0  0  0  0  0  0  0
   10.7100   -0.3170   24.8850 C   0  0  0  0  0  0  0  0  0  0  0  0
    9.4590    0.0460   25.4030 C   0  0  0  0  0  0  0  0  0  0  0  0
    7.3540   -0.0570   22.3610 N   0  0  0  0  0  0  0  0  0  0  0  0
    8.3490    0.1260   24.5520 C   0  0  0  0  0  0  0  0  0  0  0  0
    7.2930    0.3050   21.0420 C   0  0  0  0  0  0  0  0  0  0  0  0
    8.2380    0.4880   20.2950 O   0  0  0  0  0  0  0  0  0  0  0  0
    5.9910    0.4480   20.6630 N   0  0  0  0  0  0  0  0  0  0  0  0
    5.5150    0.9700   19.4430 C   0  0  0  0  0  0  0  0  0  0  0  0
    6.0620    0.5990   18.1960 C   0  0  0  0  0  0  0  0  0  0  0  0
    4.4960    1.9270   19.4880 C   0  0  0  0  0  0  0  0  0  0  0  0
    5.6520    1.1280   17.0250 N   0  0  0  0  0  0  0  0  0  0  0  0
    4.0880    2.4930   18.2770 C   0  0  0  0  0  0  0  0  0  0  0  0
    4.7040    2.0940   17.0850 C   0  0  0  0  0  0  0  0  0  0  0  0
  1  2  1  0
  2  3  1  0
  2  4  1  0
  4  5  1  0
  5  6  1  0
  6  7  1  6
  6  8  1  0
  8 11  2  0
  8  9  1  0
  9 10  2  0
 10 13  1  0
 10 14  1  0
 11 12  1  0
 12 14  2  0
 13 15  1  0
 15 16  2  0
 15 17  1  0
 17 18  1  0
 18 19  2  0
 18 20  1  0
 19 21  1  0
 20 22  2  0
 21 23  2  0
 22 23  1  0
M  END
>  <original SMILES>  (476) 
CN(C)CCC(O)c1cccc(NC(=O)Nc2cccnc2)c1

>  <AutoDock Predicted Affinity>  (476) 
-5.55631

>  <ref_pdb>  (476) 
x0434_0

>  <ref_mols>  (476) 
x0434_0

>  <creator>  (476) 
Will Poole

>  <energy minimised>  (476) 
True

$$$$
WPC2895_minimised.pdb
     RDKit          3D

 21 22  0  0  0  0  0  0  0  0999 V2000
   14.2350   -0.7790   20.7430 C   0  0  0  0  0  0  0  0  0  0  0  0
   14.9300    0.4590   21.1420 N   0  0  0  0  0  0  0  0  0  0  0  0
   15.8290    0.9810   20.0900 C   0  0  0  0  0  0  0  0  0  0  0  0
   14.0470    1.5050   21.6930 C   0  0  0  0  0  0  0  0  0  0  0  0
   13.3730    1.1550   23.0300 C   0  0  0  0  0  0  0  0  0  0  0  0
   12.1130    1.9850   23.1970 C   0  0  0  0  0  0  0  0  0  0  0  0
   10.8630    1.3700   23.0200 C   0  0  0  0  0  0  0  0  0  0  0  0
    9.6890    2.1320   23.0360 C   0  0  0  0  0  0  0  0  0  0  0  0
   12.1770    3.3790   23.3810 C   0  0  0  0  0  0  0  0  0  0  0  0
   10.9980    4.1420   23.4240 C   0  0  0  0  0  0  0  0  0  0  0  0
    8.4610    1.5290   22.7000 N   0  0  0  0  0  0  0  0  0  0  0  0
    9.7520    3.5160   23.2560 C   0  0  0  0  0  0  0  0  0  0  0  0
    8.1400    1.1290   21.4310 C   0  0  0  0  0  0  0  0  0  0  0  0
    8.9340    1.0800   20.5110 O   0  0  0  0  0  0  0  0  0  0  0  0
    6.8100    0.8430   21.2710 N   0  0  0  0  0  0  0  0  0  0  0  0
    6.1150    0.9570   20.0420 C   0  0  0  0  0  0  0  0  0  0  0  0
    6.5650    0.3680   18.8370 C   0  0  0  0  0  0  0  0  0  0  0  0
    5.0090    1.8130   20.0080 C   0  0  0  0  0  0  0  0  0  0  0  0
    5.9770    0.5910   17.6380 N   0  0  0  0  0  0  0  0  0  0  0  0
    4.4280    2.0770   18.7650 C   0  0  0  0  0  0  0  0  0  0  0  0
    4.9570    1.4780   17.6150 C   0  0  0  0  0  0  0  0  0  0  0  0
  1  2  1  0
  2  3  1  0
  2  4  1  0
  4  5  1  0
  5  6  1  0
  6  9  2  0
  6  7  1  0
  7  8  2  0
  8 11  1  0
  8 12  1  0
  9 10  1  0
 10 12  2  0
 11 13  1  0
 13 14  2  0
 13 15  1  0
 15 16  1  0
 16 17  2  0
 16 18  1  0
 17 19  1  0
 18 20  2  0
 19 21  2  0
 20 21  1  0
M  END
>  <original SMILES>  (477) 
CN(C)CCc1cccc(NC(=O)Nc2cccnc2)c1

>  <AutoDock Predicted Affinity>  (477) 
-6.021505

>  <ref_pdb>  (477) 
x0434_0

>  <ref_mols>  (477) 
x0434_0

>  <creator>  (477) 
Will Poole

>  <energy minimised>  (477) 
True

$$$$
WPC2799_minimised.pdb
     RDKit          3D

 24 26  0  0  1  0  0  0  0  0999 V2000
   12.6270   -2.2740   23.0710 C   0  0  0  0  0  0  0  0  0  0  0  0
   13.2500   -1.0260   22.6210 N   0  0  0  0  0  0  0  0  0  0  0  0
   13.7000   -0.8300   21.3380 C   0  0  0  0  0  0  0  0  0  0  0  0
   14.0730   -1.6940   20.5610 O   0  0  0  0  0  0  0  0  0  0  0  0
   13.5720    0.6640   21.0630 C   0  0  1  0  0  0  0  0  0  0  0  0
   12.2470    0.9760   20.6290 O   0  0  0  0  0  0  0  0  0  0  0  0
   13.7260    1.2790   22.4500 C   0  0  0  0  0  0  0  0  0  0  0  0
   13.0380    0.2360   23.3480 C   0  0  1  0  0  0  0  0  0  0  0  0
   11.5720    0.5900   23.5990 C   0  0  0  0  0  0  0  0  0  0  0  0
   10.4900    0.0400   22.8780 C   0  0  0  0  0  0  0  0  0  0  0  0
    9.1750    0.4350   23.1700 C   0  0  0  0  0  0  0  0  0  0  0  0
   11.3010    1.5560   24.5760 C   0  0  0  0  0  0  0  0  0  0  0  0
    9.9910    1.9150   24.9020 C   0  0  0  0  0  0  0  0  0  0  0  0
    8.0900   -0.0260   22.4080 N   0  0  0  0  0  0  0  0  0  0  0  0
    8.9210    1.3490   24.2000 C   0  0  0  0  0  0  0  0  0  0  0  0
    7.9050    0.2330   21.0780 C   0  0  0  0  0  0  0  0  0  0  0  0
    8.7640    0.6290   20.3140 O   0  0  0  0  0  0  0  0  0  0  0  0
    6.5960    0.0570   20.7340 N   0  0  0  0  0  0  0  0  0  0  0  0
    5.9650    0.5930   19.5920 C   0  0  0  0  0  0  0  0  0  0  0  0
    6.3740    0.2740   18.2820 C   0  0  0  0  0  0  0  0  0  0  0  0
    4.9370    1.5260   19.7800 C   0  0  0  0  0  0  0  0  0  0  0  0
    5.7950    0.8040   17.1820 N   0  0  0  0  0  0  0  0  0  0  0  0
    4.3660    2.1050   18.6430 C   0  0  0  0  0  0  0  0  0  0  0  0
    4.8300    1.7330   17.3740 C   0  0  0  0  0  0  0  0  0  0  0  0
  1  2  1  0
  2  3  1  0
  2  8  1  0
  3  4  2  0
  3  5  1  0
  5  6  1  1
  5  7  1  0
  7  8  1  0
  8  9  1  6
  9 12  1  0
  9 10  2  0
 10 11  1  0
 11 14  1  0
 11 15  2  0
 12 13  2  0
 13 15  1  0
 14 16  1  0
 16 17  2  0
 16 18  1  0
 18 19  1  0
 19 20  2  0
 19 21  1  0
 20 22  1  0
 21 23  2  0
 22 24  2  0
 23 24  1  0
M  END
>  <original SMILES>  (478) 
CN1C(=O)C(O)CC1c1cccc(NC(=O)Nc2cccnc2)c1

>  <AutoDock Predicted Affinity>  (478) 
-6.03378

>  <ref_pdb>  (478) 
x0434_0

>  <ref_mols>  (478) 
x0434_0

>  <creator>  (478) 
Will Poole

>  <energy minimised>  (478) 
True

$$$$
WPC2727_minimised.pdb
     RDKit          3D

 20 21  0  0  1  0  0  0  0  0999 V2000
   13.7790   -1.4890   21.1620 C   0  0  0  0  0  0  0  0  0  0  0  0
   12.4290   -0.9450   21.3150 N   0  0  0  0  0  0  0  0  0  0  0  0
   12.0170   -0.8170   22.7160 C   0  0  2  0  0  0  0  0  0  0  0  0
   11.5220   -2.1770   23.2520 C   0  0  0  0  0  0  0  0  0  0  0  0
   10.9760    0.2740   22.8910 C   0  0  0  0  0  0  0  0  0  0  0  0
    9.6760    0.0860   22.4040 C   0  0  0  0  0  0  0  0  0  0  0  0
    8.7060    1.0770   22.5790 C   0  0  0  0  0  0  0  0  0  0  0  0
   11.3040    1.4820   23.5350 C   0  0  0  0  0  0  0  0  0  0  0  0
   10.3320    2.4830   23.7030 C   0  0  0  0  0  0  0  0  0  0  0  0
    7.4280    0.8880   22.0330 N   0  0  0  0  0  0  0  0  0  0  0  0
    9.0270    2.2770   23.2290 C   0  0  0  0  0  0  0  0  0  0  0  0
    7.1870    0.6810   20.7070 C   0  0  0  0  0  0  0  0  0  0  0  0
    8.0520    0.5100   19.8690 O   0  0  0  0  0  0  0  0  0  0  0  0
    5.8540    0.7400   20.4220 N   0  0  0  0  0  0  0  0  0  0  0  0
    5.3130    1.1390   19.1830 C   0  0  0  0  0  0  0  0  0  0  0  0
    5.8680    0.7490   17.9440 C   0  0  0  0  0  0  0  0  0  0  0  0
    4.2900    2.0920   19.2010 C   0  0  0  0  0  0  0  0  0  0  0  0
    5.5000    1.2930   16.7670 N   0  0  0  0  0  0  0  0  0  0  0  0
    3.9030    2.6530   17.9800 C   0  0  0  0  0  0  0  0  0  0  0  0
    4.5650    2.2710   16.8090 C   0  0  0  0  0  0  0  0  0  0  0  0
  1  2  1  0
  2  3  1  0
  3  4  1  6
  3  5  1  0
  5  8  2  0
  5  6  1  0
  6  7  2  0
  7 10  1  0
  7 11  1  0
  8  9  1  0
  9 11  2  0
 10 12  1  0
 12 13  2  0
 12 14  1  0
 14 15  1  0
 15 16  2  0
 15 17  1  0
 16 18  1  0
 17 19  2  0
 18 20  2  0
 19 20  1  0
M  END
>  <original SMILES>  (479) 
CNC(C)c1cccc(NC(=O)Nc2cccnc2)c1

>  <AutoDock Predicted Affinity>  (479) 
-5.58391

>  <ref_pdb>  (479) 
x0434_0

>  <ref_mols>  (479) 
x0434_0

>  <creator>  (479) 
Will Poole

>  <energy minimised>  (479) 
True

$$$$
WPC2695_minimised.pdb
     RDKit          3D

 21 22  0  0  1  0  0  0  0  0999 V2000
   15.4880    1.0390   20.0710 C   0  0  0  0  0  0  0  0  0  0  0  0
   15.2370    1.4070   21.4760 N   0  0  0  0  0  0  0  0  0  0  0  0
   13.8460    1.4650   21.9640 C   0  0  0  0  0  0  0  0  0  0  0  0
   13.0660    0.1300   21.8470 C   0  0  1  0  0  0  0  0  0  0  0  0
   13.9200   -1.1000   22.2030 C   0  0  0  0  0  0  0  0  0  0  0  0
   11.7940    0.1620   22.6870 C   0  0  0  0  0  0  0  0  0  0  0  0
   10.5530   -0.0290   22.0630 C   0  0  0  0  0  0  0  0  0  0  0  0
    9.3580    0.0360   22.8000 C   0  0  0  0  0  0  0  0  0  0  0  0
   11.8360    0.3650   24.0780 C   0  0  0  0  0  0  0  0  0  0  0  0
   10.6500    0.3770   24.8300 C   0  0  0  0  0  0  0  0  0  0  0  0
    8.0900   -0.0670   22.1840 N   0  0  0  0  0  0  0  0  0  0  0  0
    9.4120    0.2260   24.1880 C   0  0  0  0  0  0  0  0  0  0  0  0
    7.7480    0.2650   20.8990 C   0  0  0  0  0  0  0  0  0  0  0  0
    8.5220    0.5740   20.0140 O   0  0  0  0  0  0  0  0  0  0  0  0
    6.3960    0.2320   20.7080 N   0  0  0  0  0  0  0  0  0  0  0  0
    5.7280    0.7300   19.5670 C   0  0  0  0  0  0  0  0  0  0  0  0
    6.1300    0.3890   18.2570 C   0  0  0  0  0  0  0  0  0  0  0  0
    4.7060    1.6700   19.7430 C   0  0  0  0  0  0  0  0  0  0  0  0
    5.5700    0.9160   17.1490 N   0  0  0  0  0  0  0  0  0  0  0  0
    4.1500    2.2450   18.5950 C   0  0  0  0  0  0  0  0  0  0  0  0
    4.6220    1.8640   17.3310 C   0  0  0  0  0  0  0  0  0  0  0  0
  1  2  1  0
  2  3  1  0
  3  4  1  0
  4  5  1  1
  4  6  1  0
  6  9  2  0
  6  7  1  0
  7  8  2  0
  8 11  1  0
  8 12  1  0
  9 10  1  0
 10 12  2  0
 11 13  1  0
 13 14  2  0
 13 15  1  0
 15 16  1  0
 16 17  2  0
 16 18  1  0
 17 19  1  0
 18 20  2  0
 19 21  2  0
 20 21  1  0
M  END
>  <original SMILES>  (480) 
CNCC(C)c1cccc(NC(=O)Nc2cccnc2)c1

>  <AutoDock Predicted Affinity>  (480) 
-5.76183

>  <ref_pdb>  (480) 
x0434_0

>  <ref_mols>  (480) 
x0434_0

>  <creator>  (480) 
Will Poole

>  <energy minimised>  (480) 
True

$$$$
WPC2859_minimised.pdb
     RDKit          3D

 21 22  0  0  1  0  0  0  0  0999 V2000
   15.4430    0.2740   19.9650 C   0  0  0  0  0  0  0  0  0  0  0  0
   14.5200   -0.8670   20.0890 N   0  0  0  0  0  0  0  0  0  0  0  0
   13.2150   -0.5290   20.6870 C   0  0  0  0  0  0  0  0  0  0  0  0
   13.2250   -0.6750   22.2200 C   0  0  2  0  0  0  0  0  0  0  0  0
   13.4550   -2.0400   22.5460 O   0  0  0  0  0  0  0  0  0  0  0  0
   11.9280   -0.1950   22.8590 C   0  0  0  0  0  0  0  0  0  0  0  0
   10.6730   -0.5320   22.3140 C   0  0  0  0  0  0  0  0  0  0  0  0
    9.4930   -0.0240   22.8810 C   0  0  0  0  0  0  0  0  0  0  0  0
   11.9780    0.6430   23.9890 C   0  0  0  0  0  0  0  0  0  0  0  0
   10.7950    1.1150   24.5770 C   0  0  0  0  0  0  0  0  0  0  0  0
    8.2400   -0.2420   22.2790 N   0  0  0  0  0  0  0  0  0  0  0  0
    9.5530    0.7810   24.0250 C   0  0  0  0  0  0  0  0  0  0  0  0
    7.9260    0.0680   20.9840 C   0  0  0  0  0  0  0  0  0  0  0  0
    8.7330    0.3580   20.1220 O   0  0  0  0  0  0  0  0  0  0  0  0
    6.5770    0.0670   20.7730 N   0  0  0  0  0  0  0  0  0  0  0  0
    5.9270    0.5960   19.6360 C   0  0  0  0  0  0  0  0  0  0  0  0
    6.3090    0.2480   18.3230 C   0  0  0  0  0  0  0  0  0  0  0  0
    4.9310    1.5620   19.8230 C   0  0  0  0  0  0  0  0  0  0  0  0
    5.7480    0.7920   17.2220 N   0  0  0  0  0  0  0  0  0  0  0  0
    4.3720    2.1490   18.6830 C   0  0  0  0  0  0  0  0  0  0  0  0
    4.8190    1.7570   17.4130 C   0  0  0  0  0  0  0  0  0  0  0  0
  1  2  1  0
  2  3  1  0
  3  4  1  0
  4  5  1  6
  4  6  1  0
  6  9  2  0
  6  7  1  0
  7  8  2  0
  8 11  1  0
  8 12  1  0
  9 10  1  0
 10 12  2  0
 11 13  1  0
 13 14  2  0
 13 15  1  0
 15 16  1  0
 16 17  2  0
 16 18  1  0
 17 19  1  0
 18 20  2  0
 19 21  2  0
 20 21  1  0
M  END
>  <original SMILES>  (481) 
CNCC(O)c1cccc(NC(=O)Nc2cccnc2)c1

>  <AutoDock Predicted Affinity>  (481) 
-5.361105

>  <ref_pdb>  (481) 
x0434_0

>  <ref_mols>  (481) 
x0434_0

>  <creator>  (481) 
Will Poole

>  <energy minimised>  (481) 
True

$$$$
WPC2832_minimised.pdb
     RDKit          3D

 20 21  0  0  0  0  0  0  0  0999 V2000
   15.6920    0.5900   19.8940 C   0  0  0  0  0  0  0  0  0  0  0  0
   14.7880   -0.4200   20.4710 N   0  0  0  0  0  0  0  0  0  0  0  0
   13.8220    0.1580   21.4240 C   0  0  0  0  0  0  0  0  0  0  0  0
   12.8490   -0.9220   21.9040 C   0  0  0  0  0  0  0  0  0  0  0  0
   11.6620   -0.3410   22.6570 C   0  0  0  0  0  0  0  0  0  0  0  0
   10.3770   -0.4530   22.1020 C   0  0  0  0  0  0  0  0  0  0  0  0
    9.2610    0.0710   22.7720 C   0  0  0  0  0  0  0  0  0  0  0  0
   11.8220    0.3140   23.8930 C   0  0  0  0  0  0  0  0  0  0  0  0
   10.6990    0.8030   24.5820 C   0  0  0  0  0  0  0  0  0  0  0  0
    7.9760    0.0180   22.1980 N   0  0  0  0  0  0  0  0  0  0  0  0
    9.4200    0.6790   24.0240 C   0  0  0  0  0  0  0  0  0  0  0  0
    7.6630    0.3010   20.8970 C   0  0  0  0  0  0  0  0  0  0  0  0
    8.4700    0.5260   20.0160 O   0  0  0  0  0  0  0  0  0  0  0  0
    6.3130    0.3280   20.6920 N   0  0  0  0  0  0  0  0  0  0  0  0
    5.6730    0.8120   19.5300 C   0  0  0  0  0  0  0  0  0  0  0  0
    6.1000    0.4550   18.2310 C   0  0  0  0  0  0  0  0  0  0  0  0
    4.6470    1.7530   19.6760 C   0  0  0  0  0  0  0  0  0  0  0  0
    5.5640    0.9750   17.1070 N   0  0  0  0  0  0  0  0  0  0  0  0
    4.1130    2.3150   18.5120 C   0  0  0  0  0  0  0  0  0  0  0  0
    4.6140    1.9270   17.2630 C   0  0  0  0  0  0  0  0  0  0  0  0
  1  2  1  0
  2  3  1  0
  3  4  1  0
  4  5  1  0
  5  8  2  0
  5  6  1  0
  6  7  2  0
  7 10  1  0
  7 11  1  0
  8  9  1  0
  9 11  2  0
 10 12  1  0
 12 13  2  0
 12 14  1  0
 14 15  1  0
 15 16  2  0
 15 17  1  0
 16 18  1  0
 17 19  2  0
 18 20  2  0
 19 20  1  0
M  END
>  <original SMILES>  (482) 
CNCCc1cccc(NC(=O)Nc2cccnc2)c1

>  <AutoDock Predicted Affinity>  (482) 
-5.3001

>  <ref_pdb>  (482) 
x0434_0

>  <ref_mols>  (482) 
x0434_0

>  <creator>  (482) 
Will Poole

>  <energy minimised>  (482) 
True

$$$$
WPC2711_minimised.pdb
     RDKit          3D

 19 20  0  0  0  0  0  0  0  0999 V2000
   14.5710   -0.8460   20.2370 C   0  0  0  0  0  0  0  0  0  0  0  0
   13.9880   -0.3200   21.4770 N   0  0  0  0  0  0  0  0  0  0  0  0
   12.7840   -1.0530   21.8940 C   0  0  0  0  0  0  0  0  0  0  0  0
   11.7570   -0.1490   22.5540 C   0  0  0  0  0  0  0  0  0  0  0  0
   10.4040   -0.2930   22.2050 C   0  0  0  0  0  0  0  0  0  0  0  0
    9.4270    0.5380   22.7740 C   0  0  0  0  0  0  0  0  0  0  0  0
   12.1290    0.8500   23.4730 C   0  0  0  0  0  0  0  0  0  0  0  0
   11.1500    1.6840   24.0400 C   0  0  0  0  0  0  0  0  0  0  0  0
    8.0800    0.4320   22.3710 N   0  0  0  0  0  0  0  0  0  0  0  0
    9.7990    1.5200   23.7010 C   0  0  0  0  0  0  0  0  0  0  0  0
    7.6490    0.5540   21.0790 C   0  0  0  0  0  0  0  0  0  0  0  0
    8.3920    0.6840   20.1270 O   0  0  0  0  0  0  0  0  0  0  0  0
    6.2880    0.5360   20.9430 N   0  0  0  0  0  0  0  0  0  0  0  0
    5.5990    0.9080   19.7630 C   0  0  0  0  0  0  0  0  0  0  0  0
    5.9890    0.4480   18.4840 C   0  0  0  0  0  0  0  0  0  0  0  0
    4.5820    1.8650   19.8580 C   0  0  0  0  0  0  0  0  0  0  0  0
    5.4410    0.8910   17.3330 N   0  0  0  0  0  0  0  0  0  0  0  0
    4.0330    2.3490   18.6660 C   0  0  0  0  0  0  0  0  0  0  0  0
    4.5100    1.8680   17.4380 C   0  0  0  0  0  0  0  0  0  0  0  0
  1  2  1  0
  2  3  1  0
  3  4  1  0
  4  7  2  0
  4  5  1  0
  5  6  2  0
  6  9  1  0
  6 10  1  0
  7  8  1  0
  8 10  2  0
  9 11  1  0
 11 12  2  0
 11 13  1  0
 13 14  1  0
 14 15  2  0
 14 16  1  0
 15 17  1  0
 16 18  2  0
 17 19  2  0
 18 19  1  0
M  END
>  <original SMILES>  (483) 
CNCc1cccc(NC(=O)Nc2cccnc2)c1

>  <AutoDock Predicted Affinity>  (483) 
-5.604995

>  <ref_pdb>  (483) 
x0434_0

>  <ref_mols>  (483) 
x0434_0

>  <creator>  (483) 
Will Poole

>  <energy minimised>  (483) 
True

$$$$
WPC2691_minimised.pdb
     RDKit          3D

 18 19  0  0  0  0  0  0  0  0999 V2000
   13.4120   -1.4250   21.3070 C   0  0  0  0  0  0  0  0  0  0  0  0
   13.3860   -0.1280   21.9910 N   0  0  0  0  0  0  0  0  0  0  0  0
   12.2450    0.4410   22.5320 C   0  0  0  0  0  0  0  0  0  0  0  0
   10.9610   -0.0660   22.2760 C   0  0  0  0  0  0  0  0  0  0  0  0
    9.8300    0.5910   22.7830 C   0  0  0  0  0  0  0  0  0  0  0  0
   12.3890    1.5990   23.3050 C   0  0  0  0  0  0  0  0  0  0  0  0
   11.2600    2.2420   23.8390 C   0  0  0  0  0  0  0  0  0  0  0  0
    8.5330    0.1890   22.4070 N   0  0  0  0  0  0  0  0  0  0  0  0
    9.9800    1.7310   23.5820 C   0  0  0  0  0  0  0  0  0  0  0  0
    8.0790    0.2050   21.1170 C   0  0  0  0  0  0  0  0  0  0  0  0
    8.8000    0.3250   20.1460 O   0  0  0  0  0  0  0  0  0  0  0  0
    6.7160    0.1430   21.0070 N   0  0  0  0  0  0  0  0  0  0  0  0
    5.9980    0.5550   19.8560 C   0  0  0  0  0  0  0  0  0  0  0  0
    6.3440    0.1270   18.5530 C   0  0  0  0  0  0  0  0  0  0  0  0
    5.0060    1.5310   20.0050 C   0  0  0  0  0  0  0  0  0  0  0  0
    5.7750    0.6230   17.4330 N   0  0  0  0  0  0  0  0  0  0  0  0
    4.4260    2.0560   18.8440 C   0  0  0  0  0  0  0  0  0  0  0  0
    4.8600    1.6060   17.5900 C   0  0  0  0  0  0  0  0  0  0  0  0
  1  2  1  0
  2  3  1  0
  3  4  2  0
  3  6  1  0
  4  5  1  0
  5  9  2  0
  5  8  1  0
  6  7  2  0
  7  9  1  0
  8 10  1  0
 10 11  2  0
 10 12  1  0
 12 13  1  0
 13 14  2  0
 13 15  1  0
 14 16  1  0
 15 17  2  0
 16 18  2  0
 17 18  1  0
M  END
>  <original SMILES>  (484) 
CNc1cccc(NC(=O)Nc2cccnc2)c1

>  <AutoDock Predicted Affinity>  (484) 
-5.60482

>  <ref_pdb>  (484) 
x0434_0

>  <ref_mols>  (484) 
x0434_0

>  <creator>  (484) 
Will Poole

>  <energy minimised>  (484) 
True

$$$$
WPC2709_minimised.pdb
     RDKit          3D

 22 23  0  0  1  0  0  0  0  0999 V2000
   15.8040    0.8990   19.7410 C   0  0  0  0  0  0  0  0  0  0  0  0
   14.7260    0.3750   20.5390 O   0  0  0  0  0  0  0  0  0  0  0  0
   14.5130    0.8620   21.7990 C   0  0  0  0  0  0  0  0  0  0  0  0
   15.3040    1.5730   22.3880 O   0  0  0  0  0  0  0  0  0  0  0  0
   13.3370    0.1910   22.5230 C   0  0  2  0  0  0  0  0  0  0  0  0
   13.0630   -1.2420   21.9900 C   0  0  0  0  0  0  0  0  0  0  0  0
   12.1030    1.1020   22.6030 C   0  0  0  0  0  0  0  0  0  0  0  0
   10.7930    0.6130   22.4030 C   0  0  0  0  0  0  0  0  0  0  0  0
    9.6830    1.4570   22.5510 C   0  0  0  0  0  0  0  0  0  0  0  0
   12.2650    2.4620   22.9410 C   0  0  0  0  0  0  0  0  0  0  0  0
   11.1560    3.3110   23.0680 C   0  0  0  0  0  0  0  0  0  0  0  0
    8.3820    0.9760   22.2940 N   0  0  0  0  0  0  0  0  0  0  0  0
    9.8620    2.8060   22.8810 C   0  0  0  0  0  0  0  0  0  0  0  0
    7.9220    0.6800   21.0430 C   0  0  0  0  0  0  0  0  0  0  0  0
    8.6420    0.5970   20.0690 O   0  0  0  0  0  0  0  0  0  0  0  0
    6.5610    0.5600   20.9620 N   0  0  0  0  0  0  0  0  0  0  0  0
    5.8230    0.8260   19.7830 C   0  0  0  0  0  0  0  0  0  0  0  0
    6.1820    0.3080   18.5170 C   0  0  0  0  0  0  0  0  0  0  0  0
    4.7940    1.7720   19.8610 C   0  0  0  0  0  0  0  0  0  0  0  0
    5.6000    0.7000   17.3620 N   0  0  0  0  0  0  0  0  0  0  0  0
    4.2020    2.1910   18.6660 C   0  0  0  0  0  0  0  0  0  0  0  0
    4.6590    1.6680   17.4490 C   0  0  0  0  0  0  0  0  0  0  0  0
  1  2  1  0
  2  3  1  0
  3  4  2  0
  3  5  1  0
  5  6  1  6
  5  7  1  0
  7 10  2  0
  7  8  1  0
  8  9  2  0
  9 12  1  0
  9 13  1  0
 10 11  1  0
 11 13  2  0
 12 14  1  0
 14 15  2  0
 14 16  1  0
 16 17  1  0
 17 18  2  0
 17 19  1  0
 18 20  1  0
 19 21  2  0
 20 22  2  0
 21 22  1  0
M  END
>  <original SMILES>  (485) 
COC(=O)C(C)c1cccc(NC(=O)Nc2cccnc2)c1

>  <AutoDock Predicted Affinity>  (485) 
-5.62764

>  <ref_pdb>  (485) 
x0434_0

>  <ref_mols>  (485) 
x0434_0

>  <creator>  (485) 
Will Poole

>  <energy minimised>  (485) 
True

$$$$
WPC2860_minimised.pdb
     RDKit          3D

 22 23  0  0  1  0  0  0  0  0999 V2000
   15.8680    0.9320   19.6390 C   0  0  0  0  0  0  0  0  0  0  0  0
   14.7600    0.3780   20.3670 O   0  0  0  0  0  0  0  0  0  0  0  0
   14.5070    0.7900   21.6490 C   0  0  0  0  0  0  0  0  0  0  0  0
   15.2610    1.4980   22.2940 O   0  0  0  0  0  0  0  0  0  0  0  0
   13.2910    0.0700   22.2890 C   0  0  2  0  0  0  0  0  0  0  0  0
   12.9490   -1.2460   21.6780 N   0  0  0  0  0  0  0  0  0  0  0  0
   12.0720    0.9910   22.4330 C   0  0  0  0  0  0  0  0  0  0  0  0
   10.7570    0.5270   22.2070 C   0  0  0  0  0  0  0  0  0  0  0  0
    9.6540    1.3700   22.4100 C   0  0  0  0  0  0  0  0  0  0  0  0
   12.2450    2.3280   22.8560 C   0  0  0  0  0  0  0  0  0  0  0  0
   11.1420    3.1770   23.0330 C   0  0  0  0  0  0  0  0  0  0  0  0
    8.3480    0.9090   22.1490 N   0  0  0  0  0  0  0  0  0  0  0  0
    9.8440    2.6950   22.8180 C   0  0  0  0  0  0  0  0  0  0  0  0
    7.8850    0.5860   20.9060 C   0  0  0  0  0  0  0  0  0  0  0  0
    8.6030    0.4460   19.9360 O   0  0  0  0  0  0  0  0  0  0  0  0
    6.5210    0.5170   20.8360 N   0  0  0  0  0  0  0  0  0  0  0  0
    5.7760    0.8280   19.6740 C   0  0  0  0  0  0  0  0  0  0  0  0
    6.1160    0.3430   18.3900 C   0  0  0  0  0  0  0  0  0  0  0  0
    4.7600    1.7830   19.7920 C   0  0  0  0  0  0  0  0  0  0  0  0
    5.5270    0.7770   17.2560 N   0  0  0  0  0  0  0  0  0  0  0  0
    4.1580    2.2420   18.6170 C   0  0  0  0  0  0  0  0  0  0  0  0
    4.5960    1.7510   17.3810 C   0  0  0  0  0  0  0  0  0  0  0  0
  1  2  1  0
  2  3  1  0
  3  4  2  0
  3  5  1  0
  5  6  1  6
  5  7  1  0
  7 10  2  0
  7  8  1  0
  8  9  2  0
  9 12  1  0
  9 13  1  0
 10 11  1  0
 11 13  2  0
 12 14  1  0
 14 15  2  0
 14 16  1  0
 16 17  1  0
 17 18  2  0
 17 19  1  0
 18 20  1  0
 19 21  2  0
 20 22  2  0
 21 22  1  0
M  END
>  <original SMILES>  (486) 
COC(=O)C(N)c1cccc(NC(=O)Nc2cccnc2)c1

>  <AutoDock Predicted Affinity>  (486) 
-5.54384

>  <ref_pdb>  (486) 
x0434_0

>  <ref_mols>  (486) 
x0434_0

>  <creator>  (486) 
Will Poole

>  <energy minimised>  (486) 
True

$$$$
WPC2836_minimised.pdb
     RDKit          3D

 21 22  0  0  0  0  0  0  0  0999 V2000
   13.8860   -0.7930   21.3990 C   0  0  0  0  0  0  0  0  0  0  0  0
   12.5910   -0.6640   22.0080 O   0  0  0  0  0  0  0  0  0  0  0  0
   12.4650   -0.0360   23.3120 C   0  0  0  0  0  0  0  0  0  0  0  0
   12.6780    1.4840   23.1500 C   0  0  0  0  0  0  0  0  0  0  0  0
   13.5480   -0.6290   24.2550 C   0  0  0  0  0  0  0  0  0  0  0  0
   11.0160   -0.2780   23.7770 C   0  0  0  0  0  0  0  0  0  0  0  0
    9.9810   -0.4110   22.8270 C   0  0  0  0  0  0  0  0  0  0  0  0
    8.6390   -0.5380   23.2290 C   0  0  0  0  0  0  0  0  0  0  0  0
   10.6580   -0.2540   25.1400 C   0  0  0  0  0  0  0  0  0  0  0  0
    9.3270   -0.4030   25.5510 C   0  0  0  0  0  0  0  0  0  0  0  0
    7.5570   -0.5660   22.3230 N   0  0  0  0  0  0  0  0  0  0  0  0
    8.3180   -0.5530   24.5940 C   0  0  0  0  0  0  0  0  0  0  0  0
    7.4970   -0.1910   21.0080 C   0  0  0  0  0  0  0  0  0  0  0  0
    8.4350   -0.0160   20.2520 O   0  0  0  0  0  0  0  0  0  0  0  0
    6.1920   -0.0020   20.6510 N   0  0  0  0  0  0  0  0  0  0  0  0
    5.7120    0.6310   19.4860 C   0  0  0  0  0  0  0  0  0  0  0  0
    6.2380    0.3600   18.2060 C   0  0  0  0  0  0  0  0  0  0  0  0
    4.7130    1.6030   19.6210 C   0  0  0  0  0  0  0  0  0  0  0  0
    5.8220    0.9920   17.0890 N   0  0  0  0  0  0  0  0  0  0  0  0
    4.2960    2.2720   18.4660 C   0  0  0  0  0  0  0  0  0  0  0  0
    4.8880    1.9610   17.2350 C   0  0  0  0  0  0  0  0  0  0  0  0
  1  2  1  0
  2  3  1  0
  3  4  1  0
  3  5  1  0
  3  6  1  0
  6  9  2  0
  6  7  1  0
  7  8  2  0
  8 11  1  0
  8 12  1  0
  9 10  1  0
 10 12  2  0
 11 13  1  0
 13 14  2  0
 13 15  1  0
 15 16  1  0
 16 17  2  0
 16 18  1  0
 17 19  1  0
 18 20  2  0
 19 21  2  0
 20 21  1  0
M  END
>  <original SMILES>  (487) 
COC(C)(C)c1cccc(NC(=O)Nc2cccnc2)c1

>  <AutoDock Predicted Affinity>  (487) 
-6.64637

>  <ref_pdb>  (487) 
x0434_0

>  <ref_mols>  (487) 
x0434_0

>  <creator>  (487) 
Will Poole

>  <energy minimised>  (487) 
True

$$$$
WPC2782_minimised.pdb
     RDKit          3D

 20 21  0  0  0  0  0  0  0  0999 V2000
   15.5440    0.3470   19.6980 C   0  0  0  0  0  0  0  0  0  0  0  0
   14.6800   -0.5430   20.4310 O   0  0  0  0  0  0  0  0  0  0  0  0
   13.5150    0.0780   21.0030 C   0  0  0  0  0  0  0  0  0  0  0  0
   13.1040   -0.7230   22.2350 C   0  0  0  0  0  0  0  0  0  0  0  0
   11.8370   -0.1700   22.8670 C   0  0  0  0  0  0  0  0  0  0  0  0
   10.5900   -0.3910   22.2540 C   0  0  0  0  0  0  0  0  0  0  0  0
    9.4160    0.1120   22.8390 C   0  0  0  0  0  0  0  0  0  0  0  0
   11.8980    0.5670   24.0620 C   0  0  0  0  0  0  0  0  0  0  0  0
   10.7210    1.0530   24.6530 C   0  0  0  0  0  0  0  0  0  0  0  0
    8.1560   -0.0580   22.2340 N   0  0  0  0  0  0  0  0  0  0  0  0
    9.4810    0.8200   24.0450 C   0  0  0  0  0  0  0  0  0  0  0  0
    7.8450    0.2090   20.9300 C   0  0  0  0  0  0  0  0  0  0  0  0
    8.6480    0.4600   20.0540 O   0  0  0  0  0  0  0  0  0  0  0  0
    6.4940    0.1980   20.7240 N   0  0  0  0  0  0  0  0  0  0  0  0
    5.8340    0.6980   19.5800 C   0  0  0  0  0  0  0  0  0  0  0  0
    6.2320    0.3550   18.2690 C   0  0  0  0  0  0  0  0  0  0  0  0
    4.8080    1.6340   19.7580 C   0  0  0  0  0  0  0  0  0  0  0  0
    5.6590    0.8740   17.1630 N   0  0  0  0  0  0  0  0  0  0  0  0
    4.2400    2.2010   18.6120 C   0  0  0  0  0  0  0  0  0  0  0  0
    4.7050    1.8160   17.3470 C   0  0  0  0  0  0  0  0  0  0  0  0
  1  2  1  0
  2  3  1  0
  3  4  1  0
  4  5  1  0
  5  8  2  0
  5  6  1  0
  6  7  2  0
  7 10  1  0
  7 11  1  0
  8  9  1  0
  9 11  2  0
 10 12  1  0
 12 13  2  0
 12 14  1  0
 14 15  1  0
 15 16  2  0
 15 17  1  0
 16 18  1  0
 17 19  2  0
 18 20  2  0
 19 20  1  0
M  END
>  <original SMILES>  (488) 
COCCc1cccc(NC(=O)Nc2cccnc2)c1

>  <AutoDock Predicted Affinity>  (488) 
-5.25459

>  <ref_pdb>  (488) 
x0434_0

>  <ref_mols>  (488) 
x0434_0

>  <creator>  (488) 
Will Poole

>  <energy minimised>  (488) 
True

$$$$
WPC2704_minimised.pdb
     RDKit          3D

 19 20  0  0  0  0  0  0  0  0999 V2000
   14.3400   -1.2420   20.3760 C   0  0  0  0  0  0  0  0  0  0  0  0
   13.8510   -0.8530   21.6620 O   0  0  0  0  0  0  0  0  0  0  0  0
   12.6010   -1.4650   22.0250 C   0  0  0  0  0  0  0  0  0  0  0  0
   11.6570   -0.4050   22.5660 C   0  0  0  0  0  0  0  0  0  0  0  0
   10.2900   -0.4980   22.2640 C   0  0  0  0  0  0  0  0  0  0  0  0
    9.3930    0.4800   22.7140 C   0  0  0  0  0  0  0  0  0  0  0  0
   12.1220    0.6910   23.3200 C   0  0  0  0  0  0  0  0  0  0  0  0
   11.2220    1.6680   23.7780 C   0  0  0  0  0  0  0  0  0  0  0  0
    8.0410    0.4230   22.3220 N   0  0  0  0  0  0  0  0  0  0  0  0
    9.8550    1.5580   23.4810 C   0  0  0  0  0  0  0  0  0  0  0  0
    7.6210    0.4730   21.0230 C   0  0  0  0  0  0  0  0  0  0  0  0
    8.3740    0.4730   20.0690 O   0  0  0  0  0  0  0  0  0  0  0  0
    6.2640    0.5500   20.8850 N   0  0  0  0  0  0  0  0  0  0  0  0
    5.5940    0.9300   19.6980 C   0  0  0  0  0  0  0  0  0  0  0  0
    5.9790    0.4560   18.4220 C   0  0  0  0  0  0  0  0  0  0  0  0
    4.5980    1.9100   19.7850 C   0  0  0  0  0  0  0  0  0  0  0  0
    5.4600    0.9230   17.2680 N   0  0  0  0  0  0  0  0  0  0  0  0
    4.0670    2.4030   18.5890 C   0  0  0  0  0  0  0  0  0  0  0  0
    4.5490    1.9200   17.3650 C   0  0  0  0  0  0  0  0  0  0  0  0
  1  2  1  0
  2  3  1  0
  3  4  1  0
  4  7  2  0
  4  5  1  0
  5  6  2  0
  6  9  1  0
  6 10  1  0
  7  8  1  0
  8 10  2  0
  9 11  1  0
 11 12  2  0
 11 13  1  0
 13 14  1  0
 14 15  2  0
 14 16  1  0
 15 17  1  0
 16 18  2  0
 17 19  2  0
 18 19  1  0
M  END
>  <original SMILES>  (489) 
COCc1cccc(NC(=O)Nc2cccnc2)c1

>  <AutoDock Predicted Affinity>  (489) 
-5.5702

>  <ref_pdb>  (489) 
x0434_0

>  <ref_mols>  (489) 
x0434_0

>  <creator>  (489) 
Will Poole

>  <energy minimised>  (489) 
True

$$$$
WPC2911_minimised.pdb
     RDKit          3D

 21 22  0  0  0  0  0  0  0  0999 V2000
   15.9240    0.5310   19.3060 C   0  0  0  0  0  0  0  0  0  0  0  0
   14.9020   -0.4640   19.1230 O   0  0  0  0  0  0  0  0  0  0  0  0
   14.4750   -1.0780   20.3560 N   0  0  0  0  0  0  0  0  0  0  0  0
   13.4360   -0.2350   20.9620 C   0  0  0  0  0  0  0  0  0  0  0  0
   13.0800   -0.7320   22.3620 C   0  0  0  0  0  0  0  0  0  0  0  0
   11.8590   -0.0190   22.9110 C   0  0  0  0  0  0  0  0  0  0  0  0
   10.5890   -0.2910   22.3720 C   0  0  0  0  0  0  0  0  0  0  0  0
    9.4540    0.3590   22.8790 C   0  0  0  0  0  0  0  0  0  0  0  0
   11.9840    0.9210   23.9490 C   0  0  0  0  0  0  0  0  0  0  0  0
   10.8440    1.5640   24.4580 C   0  0  0  0  0  0  0  0  0  0  0  0
    8.1800    0.1340   22.3220 N   0  0  0  0  0  0  0  0  0  0  0  0
    9.5790    1.2750   23.9310 C   0  0  0  0  0  0  0  0  0  0  0  0
    7.8500    0.3210   21.0090 C   0  0  0  0  0  0  0  0  0  0  0  0
    8.6450    0.5480   20.1200 O   0  0  0  0  0  0  0  0  0  0  0  0
    6.4990    0.2680   20.8050 N   0  0  0  0  0  0  0  0  0  0  0  0
    5.8330    0.7200   19.6440 C   0  0  0  0  0  0  0  0  0  0  0  0
    6.2400    0.3450   18.3450 C   0  0  0  0  0  0  0  0  0  0  0  0
    4.8000    1.6530   19.7930 C   0  0  0  0  0  0  0  0  0  0  0  0
    5.6700    0.8320   17.2220 N   0  0  0  0  0  0  0  0  0  0  0  0
    4.2350    2.1870   18.6300 C   0  0  0  0  0  0  0  0  0  0  0  0
    4.7110    1.7750   17.3780 C   0  0  0  0  0  0  0  0  0  0  0  0
  1  2  1  0
  2  3  1  0
  3  4  1  0
  4  5  1  0
  5  6  1  0
  6  9  2  0
  6  7  1  0
  7  8  2  0
  8 11  1  0
  8 12  1  0
  9 10  1  0
 10 12  2  0
 11 13  1  0
 13 14  2  0
 13 15  1  0
 15 16  1  0
 16 17  2  0
 16 18  1  0
 17 19  1  0
 18 20  2  0
 19 21  2  0
 20 21  1  0
M  END
>  <original SMILES>  (490) 
CONCCc1cccc(NC(=O)Nc2cccnc2)c1

>  <AutoDock Predicted Affinity>  (490) 
-5.06791

>  <ref_pdb>  (490) 
x0434_0

>  <ref_mols>  (490) 
x0434_0

>  <creator>  (490) 
Will Poole

>  <energy minimised>  (490) 
True

$$$$
WPC2706_minimised.pdb
     RDKit          3D

 20 21  0  0  0  0  0  0  0  0999 V2000
   15.5050    0.0760   19.6760 C   0  0  0  0  0  0  0  0  0  0  0  0
   14.6460   -0.9890   20.1300 O   0  0  0  0  0  0  0  0  0  0  0  0
   13.4080   -0.4430   20.6230 N   0  0  0  0  0  0  0  0  0  0  0  0
   13.2960   -0.7020   22.0560 C   0  0  0  0  0  0  0  0  0  0  0  0
   12.0900    0.0160   22.6370 C   0  0  0  0  0  0  0  0  0  0  0  0
   10.7900   -0.3310   22.2260 C   0  0  0  0  0  0  0  0  0  0  0  0
    9.6790    0.3510   22.7470 C   0  0  0  0  0  0  0  0  0  0  0  0
   12.2670    1.0580   23.5640 C   0  0  0  0  0  0  0  0  0  0  0  0
   11.1540    1.7310   24.0920 C   0  0  0  0  0  0  0  0  0  0  0  0
    8.3760    0.0770   22.2870 N   0  0  0  0  0  0  0  0  0  0  0  0
    9.8600    1.3690   23.6920 C   0  0  0  0  0  0  0  0  0  0  0  0
    7.9660    0.2090   20.9890 C   0  0  0  0  0  0  0  0  0  0  0  0
    8.7140    0.3760   20.0470 O   0  0  0  0  0  0  0  0  0  0  0  0
    6.6040    0.1810   20.8530 N   0  0  0  0  0  0  0  0  0  0  0  0
    5.9000    0.6290   19.7090 C   0  0  0  0  0  0  0  0  0  0  0  0
    6.2620    0.2470   18.3980 C   0  0  0  0  0  0  0  0  0  0  0  0
    4.8820    1.5740   19.8840 C   0  0  0  0  0  0  0  0  0  0  0  0
    5.6670    0.7400   17.2910 N   0  0  0  0  0  0  0  0  0  0  0  0
    4.2890    2.1130   18.7360 C   0  0  0  0  0  0  0  0  0  0  0  0
    4.7250    1.6940   17.4710 C   0  0  0  0  0  0  0  0  0  0  0  0
  1  2  1  0
  2  3  1  0
  3  4  1  0
  4  5  1  0
  5  8  2  0
  5  6  1  0
  6  7  2  0
  7 10  1  0
  7 11  1  0
  8  9  1  0
  9 11  2  0
 10 12  1  0
 12 13  2  0
 12 14  1  0
 14 15  1  0
 15 16  2  0
 15 17  1  0
 16 18  1  0
 17 19  2  0
 18 20  2  0
 19 20  1  0
M  END
>  <original SMILES>  (491) 
CONCc1cccc(NC(=O)Nc2cccnc2)c1

>  <AutoDock Predicted Affinity>  (491) 
-5.398463

>  <ref_pdb>  (491) 
x0434_0

>  <ref_mols>  (491) 
x0434_0

>  <creator>  (491) 
Will Poole

>  <energy minimised>  (491) 
True

$$$$
WPC2697_minimised.pdb
     RDKit          3D

 18 19  0  0  0  0  0  0  0  0999 V2000
   13.2480   -1.6650   21.5000 C   0  0  0  0  0  0  0  0  0  0  0  0
   13.3500   -0.3730   22.1080 O   0  0  0  0  0  0  0  0  0  0  0  0
   12.2370    0.3120   22.5440 C   0  0  0  0  0  0  0  0  0  0  0  0
   10.9250   -0.1210   22.2710 C   0  0  0  0  0  0  0  0  0  0  0  0
    9.8310    0.6240   22.7320 C   0  0  0  0  0  0  0  0  0  0  0  0
   12.4410    1.4960   23.2660 C   0  0  0  0  0  0  0  0  0  0  0  0
   11.3450    2.2430   23.7260 C   0  0  0  0  0  0  0  0  0  0  0  0
    8.5150    0.2530   22.3880 N   0  0  0  0  0  0  0  0  0  0  0  0
   10.0400    1.7980   23.4680 C   0  0  0  0  0  0  0  0  0  0  0  0
    8.0410    0.2420   21.1070 C   0  0  0  0  0  0  0  0  0  0  0  0
    8.7530    0.3460   20.1280 O   0  0  0  0  0  0  0  0  0  0  0  0
    6.6780    0.1680   21.0090 N   0  0  0  0  0  0  0  0  0  0  0  0
    5.9540    0.5600   19.8560 C   0  0  0  0  0  0  0  0  0  0  0  0
    6.3050    0.1250   18.5570 C   0  0  0  0  0  0  0  0  0  0  0  0
    4.9530    1.5290   19.9960 C   0  0  0  0  0  0  0  0  0  0  0  0
    5.7400    0.6120   17.4310 N   0  0  0  0  0  0  0  0  0  0  0  0
    4.3780    2.0470   18.8300 C   0  0  0  0  0  0  0  0  0  0  0  0
    4.8210    1.5930   17.5790 C   0  0  0  0  0  0  0  0  0  0  0  0
  1  2  1  0
  2  3  1  0
  3  4  2  0
  3  6  1  0
  4  5  1  0
  5  9  2  0
  5  8  1  0
  6  7  2  0
  7  9  1  0
  8 10  1  0
 10 11  2  0
 10 12  1  0
 12 13  1  0
 13 14  2  0
 13 15  1  0
 14 16  1  0
 15 17  2  0
 16 18  2  0
 17 18  1  0
M  END
>  <original SMILES>  (492) 
COc1cccc(NC(=O)Nc2cccnc2)c1

>  <AutoDock Predicted Affinity>  (492) 
-5.64886

>  <ref_pdb>  (492) 
x0434_0

>  <ref_mols>  (492) 
x0434_0

>  <creator>  (492) 
Will Poole

>  <energy minimised>  (492) 
True

$$$$
WPC2778_minimised.pdb
     RDKit          3D

 19 20  0  0  0  0  0  0  0  0999 V2000
   15.3400    0.0250   19.6300 C   0  0  0  0  0  0  0  0  0  0  0  0
   13.8770   -0.7780   20.4210 S   0  0  0  0  0  0  0  0  0  0  0  0
   13.8390    0.1240   22.0260 C   0  0  0  0  0  0  0  0  0  0  0  0
   12.4550    0.4760   22.5640 C   0  0  0  0  0  0  0  0  0  0  0  0
   11.2490   -0.1050   22.1120 C   0  0  0  0  0  0  0  0  0  0  0  0
   10.0220    0.2800   22.6910 C   0  0  0  0  0  0  0  0  0  0  0  0
   12.4030    1.4510   23.5730 C   0  0  0  0  0  0  0  0  0  0  0  0
   11.1830    1.8290   24.1510 C   0  0  0  0  0  0  0  0  0  0  0  0
    8.7810   -0.2090   22.2280 N   0  0  0  0  0  0  0  0  0  0  0  0
    9.9950    1.2320   23.7180 C   0  0  0  0  0  0  0  0  0  0  0  0
    8.2720    0.0430   20.9850 C   0  0  0  0  0  0  0  0  0  0  0  0
    8.9370    0.4250   20.0470 O   0  0  0  0  0  0  0  0  0  0  0  0
    6.9140   -0.1040   20.8940 N   0  0  0  0  0  0  0  0  0  0  0  0
    6.1440    0.3840   19.8080 C   0  0  0  0  0  0  0  0  0  0  0  0
    6.4250    0.0180   18.4730 C   0  0  0  0  0  0  0  0  0  0  0  0
    5.1650    1.3560   20.0500 C   0  0  0  0  0  0  0  0  0  0  0  0
    5.7860    0.5470   17.4070 N   0  0  0  0  0  0  0  0  0  0  0  0
    4.5220    1.9270   18.9440 C   0  0  0  0  0  0  0  0  0  0  0  0
    4.8740    1.5150   17.6500 C   0  0  0  0  0  0  0  0  0  0  0  0
  1  2  1  0
  2  3  1  0
  3  4  1  0
  4  7  2  0
  4  5  1  0
  5  6  2  0
  6  9  1  0
  6 10  1  0
  7  8  1  0
  8 10  2  0
  9 11  1  0
 11 12  2  0
 11 13  1  0
 13 14  1  0
 14 15  2  0
 14 16  1  0
 15 17  1  0
 16 18  2  0
 17 19  2  0
 18 19  1  0
M  END
>  <original SMILES>  (493) 
CSCc1cccc(NC(=O)Nc2cccnc2)c1

>  <AutoDock Predicted Affinity>  (493) 
-5.69351

>  <ref_pdb>  (493) 
x0434_0

>  <ref_mols>  (493) 
x0434_0

>  <creator>  (493) 
Will Poole

>  <energy minimised>  (493) 
True

$$$$
WPC2920_minimised.pdb
     RDKit          3D

 18 19  0  0  0  0  0  0  0  0999 V2000
   13.2800   -1.1170   21.7090 C   0  0  0  0  0  0  0  0  0  0  0  0
   13.8110    0.3290   22.7160 S   0  0  0  0  0  0  0  0  0  0  0  0
   12.3290    1.2990   22.9360 C   0  0  0  0  0  0  0  0  0  0  0  0
   11.0480    0.7280   22.8450 C   0  0  0  0  0  0  0  0  0  0  0  0
    9.9080    1.5390   22.9350 C   0  0  0  0  0  0  0  0  0  0  0  0
   12.4560    2.6830   23.1330 C   0  0  0  0  0  0  0  0  0  0  0  0
   11.3160    3.4950   23.2440 C   0  0  0  0  0  0  0  0  0  0  0  0
    8.6360    1.0000   22.6610 N   0  0  0  0  0  0  0  0  0  0  0  0
   10.0400    2.9200   23.1460 C   0  0  0  0  0  0  0  0  0  0  0  0
    8.2100    0.7330   21.3890 C   0  0  0  0  0  0  0  0  0  0  0  0
    8.9510    0.7220   20.4270 O   0  0  0  0  0  0  0  0  0  0  0  0
    6.8580    0.5430   21.2690 N   0  0  0  0  0  0  0  0  0  0  0  0
    6.1390    0.7570   20.0660 C   0  0  0  0  0  0  0  0  0  0  0  0
    6.5430    0.2190   18.8220 C   0  0  0  0  0  0  0  0  0  0  0  0
    5.0740    1.6650   20.0950 C   0  0  0  0  0  0  0  0  0  0  0  0
    5.9570    0.5400   17.6460 N   0  0  0  0  0  0  0  0  0  0  0  0
    4.4890    2.0240   18.8770 C   0  0  0  0  0  0  0  0  0  0  0  0
    4.9790    1.4730   17.6860 C   0  0  0  0  0  0  0  0  0  0  0  0
  1  2  1  0
  2  3  1  0
  3  4  2  0
  3  6  1  0
  4  5  1  0
  5  9  2  0
  5  8  1  0
  6  7  2  0
  7  9  1  0
  8 10  1  0
 10 11  2  0
 10 12  1  0
 12 13  1  0
 13 14  2  0
 13 15  1  0
 14 16  1  0
 15 17  2  0
 16 18  2  0
 17 18  1  0
M  END
>  <original SMILES>  (494) 
CSc1cccc(NC(=O)Nc2cccnc2)c1

>  <AutoDock Predicted Affinity>  (494) 
-5.21571

>  <ref_pdb>  (494) 
x0434_0

>  <ref_mols>  (494) 
x0434_0

>  <creator>  (494) 
Will Poole

>  <energy minimised>  (494) 
True

$$$$
WPC2904_minimised.pdb
     RDKit          3D

 19 20  0  0  0  0  0  0  0  0999 V2000
   13.7580   -0.7590   21.1470 C   0  0  0  0  0  0  0  0  0  0  0  0
   13.0730   -1.2470   22.7660 S   0  0  1  0  0  0  0  0  0  0  0  0
   14.4990   -0.8710   23.5910 O   0  0  0  0  0  0  0  0  0  0  0  0
   11.9700    0.1530   22.8480 C   0  0  0  0  0  0  0  0  0  0  0  0
   10.6110   -0.0620   22.6030 C   0  0  0  0  0  0  0  0  0  0  0  0
    9.7230    1.0190   22.6110 C   0  0  0  0  0  0  0  0  0  0  0  0
   12.4490    1.4470   23.1010 C   0  0  0  0  0  0  0  0  0  0  0  0
   11.5600    2.5350   23.1030 C   0  0  0  0  0  0  0  0  0  0  0  0
    8.3710    0.8050   22.2940 N   0  0  0  0  0  0  0  0  0  0  0  0
   10.1930    2.3190   22.8590 C   0  0  0  0  0  0  0  0  0  0  0  0
    7.9030    0.6240   21.0240 C   0  0  0  0  0  0  0  0  0  0  0  0
    8.6080    0.5400   20.0390 O   0  0  0  0  0  0  0  0  0  0  0  0
    6.5390    0.6040   20.9430 N   0  0  0  0  0  0  0  0  0  0  0  0
    5.8110    0.8910   19.7650 C   0  0  0  0  0  0  0  0  0  0  0  0
    6.1590    0.3600   18.5000 C   0  0  0  0  0  0  0  0  0  0  0  0
    4.7960    1.8510   19.8420 C   0  0  0  0  0  0  0  0  0  0  0  0
    5.5770    0.7510   17.3440 N   0  0  0  0  0  0  0  0  0  0  0  0
    4.2060    2.2720   18.6450 C   0  0  0  0  0  0  0  0  0  0  0  0
    4.6510    1.7330   17.4300 C   0  0  0  0  0  0  0  0  0  0  0  0
  2  1  1  6
  2  4  1  0
  2  3  1  0
  4  5  2  0
  4  7  1  0
  5  6  1  0
  6 10  2  0
  6  9  1  0
  7  8  2  0
  8 10  1  0
  9 11  1  0
 11 12  2  0
 11 13  1  0
 13 14  1  0
 14 15  2  0
 14 16  1  0
 15 17  1  0
 16 18  2  0
 17 19  2  0
 18 19  1  0
M  END
>  <original SMILES>  (495) 
C[SH](O)c1cccc(NC(=O)Nc2cccnc2)c1

>  <AutoDock Predicted Affinity>  (495) 
-5.62945

>  <ref_pdb>  (495) 
x0434_0

>  <ref_mols>  (495) 
x0434_0

>  <creator>  (495) 
Will Poole

>  <energy minimised>  (495) 
True

$$$$
WPC2855_minimised.pdb
     RDKit          3D

 17 18  0  0  0  0  0  0  0  0999 V2000
   13.3560   -1.0760   21.4350 C   0  0  0  0  0  0  0  0  0  0  0  0
   12.2620   -0.3030   22.1460 C   0  0  0  0  0  0  0  0  0  0  0  0
   10.9110   -0.6050   21.9030 C   0  0  0  0  0  0  0  0  0  0  0  0
    9.8940    0.1380   22.5210 C   0  0  0  0  0  0  0  0  0  0  0  0
   12.5890    0.7470   23.0220 C   0  0  0  0  0  0  0  0  0  0  0  0
   11.5710    1.4840   23.6490 C   0  0  0  0  0  0  0  0  0  0  0  0
    8.5390   -0.0810   22.1910 N   0  0  0  0  0  0  0  0  0  0  0  0
   10.2240    1.1740   23.4050 C   0  0  0  0  0  0  0  0  0  0  0  0
    8.0290    0.0440   20.9280 C   0  0  0  0  0  0  0  0  0  0  0  0
    8.7170    0.1790   19.9360 O   0  0  0  0  0  0  0  0  0  0  0  0
    6.6620    0.0610   20.8720 N   0  0  0  0  0  0  0  0  0  0  0  0
    5.9220    0.5220   19.7550 C   0  0  0  0  0  0  0  0  0  0  0  0
    6.2310    0.1280   18.4340 C   0  0  0  0  0  0  0  0  0  0  0  0
    4.9470    1.5070   19.9550 C   0  0  0  0  0  0  0  0  0  0  0  0
    5.6510    0.6670   17.3410 N   0  0  0  0  0  0  0  0  0  0  0  0
    4.3510    2.0750   18.8210 C   0  0  0  0  0  0  0  0  0  0  0  0
    4.7550    1.6590   17.5450 C   0  0  0  0  0  0  0  0  0  0  0  0
  1  2  1  0
  2  3  2  0
  2  5  1  0
  3  4  1  0
  4  8  2  0
  4  7  1  0
  5  6  2  0
  6  8  1  0
  7  9  1  0
  9 10  2  0
  9 11  1  0
 11 12  1  0
 12 13  2  0
 12 14  1  0
 13 15  1  0
 14 16  2  0
 15 17  2  0
 16 17  1  0
M  END
>  <original SMILES>  (496) 
Cc1cccc(NC(=O)Nc2cccnc2)c1

>  <AutoDock Predicted Affinity>  (496) 
-6.049855

>  <ref_pdb>  (496) 
x0434_0

>  <ref_mols>  (496) 
x0434_0

>  <creator>  (496) 
Will Poole

>  <energy minimised>  (496) 
True

$$$$
WPC2745_minimised.pdb
     RDKit          3D

 22 23  0  0  0  0  0  0  0  0999 V2000
   14.0630   -1.2740   20.6210 N   0  0  0  0  0  0  0  0  0  0  0  0
   13.1750   -1.0830   21.3300 C   0  0  0  0  0  0  0  0  0  0  0  0
   12.0400   -0.9040   22.2390 C   0  0  0  0  0  0  0  0  0  0  0  0
   11.4960   -2.2680   22.7060 C   0  0  0  0  0  0  0  0  0  0  0  0
   10.3280   -2.1020   24.1110 S   0  0  0  0  0  0  0  0  0  0  0  0
    9.8500   -3.8830   24.3100 C   0  0  0  0  0  0  0  0  0  0  0  0
    8.3410   -4.0780   24.2270 C   0  0  0  0  0  0  0  0  0  0  0  0
    7.5680   -3.2780   23.3670 C   0  0  0  0  0  0  0  0  0  0  0  0
    6.1700   -3.3740   23.3610 C   0  0  0  0  0  0  0  0  0  0  0  0
    7.6980   -5.0290   25.0390 C   0  0  0  0  0  0  0  0  0  0  0  0
    6.2980   -5.1520   25.0140 C   0  0  0  0  0  0  0  0  0  0  0  0
    5.4290   -2.4110   22.6470 N   0  0  0  0  0  0  0  0  0  0  0  0
    5.5300   -4.3110   24.1880 C   0  0  0  0  0  0  0  0  0  0  0  0
    5.5860   -2.0720   21.3310 C   0  0  0  0  0  0  0  0  0  0  0  0
    6.0260   -2.8270   20.4840 O   0  0  0  0  0  0  0  0  0  0  0  0
    5.1220   -0.8050   21.0910 N   0  0  0  0  0  0  0  0  0  0  0  0
    5.1250   -0.0350   19.8970 C   0  0  0  0  0  0  0  0  0  0  0  0
    5.9150   -0.3290   18.7590 C   0  0  0  0  0  0  0  0  0  0  0  0
    4.3250    1.1170   19.8730 C   0  0  0  0  0  0  0  0  0  0  0  0
    5.9280    0.4370   17.6460 N   0  0  0  0  0  0  0  0  0  0  0  0
    4.3410    1.9110   18.7200 C   0  0  0  0  0  0  0  0  0  0  0  0
    5.1580    1.5470   17.6420 C   0  0  0  0  0  0  0  0  0  0  0  0
  1  2  3  0
  2  3  1  0
  3  4  1  0
  4  5  1  0
  5  6  1  0
  6  7  1  0
  7 10  2  0
  7  8  1  0
  8  9  2  0
  9 12  1  0
  9 13  1  0
 10 11  1  0
 11 13  2  0
 12 14  1  0
 14 15  2  0
 14 16  1  0
 16 17  1  0
 17 18  2  0
 17 19  1  0
 18 20  1  0
 19 21  2  0
 20 22  2  0
 21 22  1  0
M  END
>  <original SMILES>  (497) 
N#CCCSCc1cccc(NC(=O)Nc2cccnc2)c1

>  <AutoDock Predicted Affinity>  (497) 
-5.95774

>  <ref_pdb>  (497) 
x0434_0

>  <ref_mols>  (497) 
x0434_0

>  <creator>  (497) 
Will Poole

>  <energy minimised>  (497) 
True

$$$$
WPC2873_minimised.pdb
     RDKit          3D

 19 20  0  0  0  0  0  0  0  0999 V2000
   13.9230   -1.6980   20.6430 N   0  0  0  0  0  0  0  0  0  0  0  0
   13.6140   -0.8500   21.3550 C   0  0  0  0  0  0  0  0  0  0  0  0
   13.3280    0.1890   22.1430 N   0  0  0  0  0  0  0  0  0  0  0  0
   12.0900    0.5040   22.6810 C   0  0  0  0  0  0  0  0  0  0  0  0
   10.8950   -0.1270   22.2890 C   0  0  0  0  0  0  0  0  0  0  0  0
    9.6710    0.2870   22.8390 C   0  0  0  0  0  0  0  0  0  0  0  0
   12.0420    1.5420   23.6200 C   0  0  0  0  0  0  0  0  0  0  0  0
   10.8250    1.9270   24.2020 C   0  0  0  0  0  0  0  0  0  0  0  0
    8.4440   -0.2000   22.3480 N   0  0  0  0  0  0  0  0  0  0  0  0
    9.6390    1.2930   23.8130 C   0  0  0  0  0  0  0  0  0  0  0  0
    8.0210    0.0010   21.0640 C   0  0  0  0  0  0  0  0  0  0  0  0
    8.7540    0.3230   20.1520 O   0  0  0  0  0  0  0  0  0  0  0  0
    6.6670   -0.1180   20.9060 N   0  0  0  0  0  0  0  0  0  0  0  0
    5.9630    0.3930   19.7900 C   0  0  0  0  0  0  0  0  0  0  0  0
    6.3170    0.0550   18.4650 C   0  0  0  0  0  0  0  0  0  0  0  0
    4.9830    1.3710   20.0000 C   0  0  0  0  0  0  0  0  0  0  0  0
    5.7560    0.6260   17.3790 N   0  0  0  0  0  0  0  0  0  0  0  0
    4.4170    1.9810   18.8740 C   0  0  0  0  0  0  0  0  0  0  0  0
    4.8440    1.6020   17.5930 C   0  0  0  0  0  0  0  0  0  0  0  0
  1  2  3  0
  2  3  1  0
  3  4  1  0
  4  7  2  0
  4  5  1  0
  5  6  2  0
  6  9  1  0
  6 10  1  0
  7  8  1  0
  8 10  2  0
  9 11  1  0
 11 12  2  0
 11 13  1  0
 13 14  1  0
 14 15  2  0
 14 16  1  0
 15 17  1  0
 16 18  2  0
 17 19  2  0
 18 19  1  0
M  END
>  <original SMILES>  (498) 
N#CNc1cccc(NC(=O)Nc2cccnc2)c1

>  <AutoDock Predicted Affinity>  (498) 
-6.16087

>  <ref_pdb>  (498) 
x0434_0

>  <ref_mols>  (498) 
x0434_0

>  <creator>  (498) 
Will Poole

>  <energy minimised>  (498) 
True

$$$$
WPC2729_minimised.pdb
     RDKit          3D

 19 20  0  0  0  0  0  0  0  0999 V2000
   13.8210   -1.7420   20.5820 N   0  0  0  0  0  0  0  0  0  0  0  0
   13.6190   -0.9870   21.4270 C   0  0  0  0  0  0  0  0  0  0  0  0
   13.4510   -0.1100   22.3940 O   0  0  0  0  0  0  0  0  0  0  0  0
   12.2180    0.3920   22.7470 C   0  0  0  0  0  0  0  0  0  0  0  0
   10.9870   -0.1930   22.3780 C   0  0  0  0  0  0  0  0  0  0  0  0
    9.7830    0.3870   22.8160 C   0  0  0  0  0  0  0  0  0  0  0  0
   12.2240    1.5550   23.5270 C   0  0  0  0  0  0  0  0  0  0  0  0
   11.0230    2.1250   23.9750 C   0  0  0  0  0  0  0  0  0  0  0  0
    8.5330   -0.0970   22.3800 N   0  0  0  0  0  0  0  0  0  0  0  0
    9.8040    1.5300   23.6260 C   0  0  0  0  0  0  0  0  0  0  0  0
    8.0800    0.0670   21.1010 C   0  0  0  0  0  0  0  0  0  0  0  0
    8.7980    0.3670   20.1720 O   0  0  0  0  0  0  0  0  0  0  0  0
    6.7240   -0.0650   20.9630 N   0  0  0  0  0  0  0  0  0  0  0  0
    6.0060    0.4070   19.8360 C   0  0  0  0  0  0  0  0  0  0  0  0
    6.3560    0.0410   18.5170 C   0  0  0  0  0  0  0  0  0  0  0  0
    5.0180    1.3820   20.0280 C   0  0  0  0  0  0  0  0  0  0  0  0
    5.7850    0.5830   17.4200 N   0  0  0  0  0  0  0  0  0  0  0  0
    4.4420    1.9600   18.8900 C   0  0  0  0  0  0  0  0  0  0  0  0
    4.8690    1.5570   17.6160 C   0  0  0  0  0  0  0  0  0  0  0  0
  1  2  3  0
  2  3  1  0
  3  4  1  0
  4  7  2  0
  4  5  1  0
  5  6  2  0
  6  9  1  0
  6 10  1  0
  7  8  1  0
  8 10  2  0
  9 11  1  0
 11 12  2  0
 11 13  1  0
 13 14  1  0
 14 15  2  0
 14 16  1  0
 15 17  1  0
 16 18  2  0
 17 19  2  0
 18 19  1  0
M  END
>  <original SMILES>  (499) 
N#COc1cccc(NC(=O)Nc2cccnc2)c1

>  <AutoDock Predicted Affinity>  (499) 
-6.22488

>  <ref_pdb>  (499) 
x0434_0

>  <ref_mols>  (499) 
x0434_0

>  <creator>  (499) 
Will Poole

>  <energy minimised>  (499) 
True

$$$$
WPC2744_minimised.pdb
     RDKit          3D

 19 20  0  0  0  0  0  0  0  0999 V2000
   14.0880   -1.6000   20.5820 N   0  0  0  0  0  0  0  0  0  0  0  0
   13.1410   -1.3500   21.3860 C   0  0  0  0  0  0  0  0  0  0  0  0
   13.0690   -0.1280   21.9770 N   0  0  0  0  0  0  0  0  0  0  0  0
   11.9880    0.4990   22.5590 C   0  0  0  0  0  0  0  0  0  0  0  0
   10.6860    0.0470   22.3110 C   0  0  0  0  0  0  0  0  0  0  0  0
    9.5870    0.7450   22.8260 C   0  0  0  0  0  0  0  0  0  0  0  0
   12.1910    1.6430   23.3390 C   0  0  0  0  0  0  0  0  0  0  0  0
   11.0930    2.3250   23.8890 C   0  0  0  0  0  0  0  0  0  0  0  0
    8.2800    0.3980   22.4320 N   0  0  0  0  0  0  0  0  0  0  0  0
    9.7900    1.8710   23.6340 C   0  0  0  0  0  0  0  0  0  0  0  0
    7.8680    0.3670   21.1280 C   0  0  0  0  0  0  0  0  0  0  0  0
    8.6210    0.4340   20.1770 O   0  0  0  0  0  0  0  0  0  0  0  0
    6.5080    0.3120   20.9840 N   0  0  0  0  0  0  0  0  0  0  0  0
    5.8250    0.6900   19.8020 C   0  0  0  0  0  0  0  0  0  0  0  0
    6.2160    0.2400   18.5200 C   0  0  0  0  0  0  0  0  0  0  0  0
    4.8210    1.6600   19.9030 C   0  0  0  0  0  0  0  0  0  0  0  0
    5.6870    0.7170   17.3730 N   0  0  0  0  0  0  0  0  0  0  0  0
    4.2830    2.1650   18.7150 C   0  0  0  0  0  0  0  0  0  0  0  0
    4.7660    1.7010   17.4840 C   0  0  0  0  0  0  0  0  0  0  0  0
  1  2  2  0
  2  3  1  0
  3  4  1  0
  4  7  2  0
  4  5  1  0
  5  6  2  0
  6  9  1  0
  6 10  1  0
  7  8  1  0
  8 10  2  0
  9 11  1  0
 11 12  2  0
 11 13  1  0
 13 14  1  0
 14 15  2  0
 14 16  1  0
 15 17  1  0
 16 18  2  0
 17 19  2  0
 18 19  1  0
M  END
>  <original SMILES>  (500) 
N=CNc1cccc(NC(=O)Nc2cccnc2)c1

>  <AutoDock Predicted Affinity>  (500) 
-5.43244

>  <ref_pdb>  (500) 
x0434_0

>  <ref_mols>  (500) 
x0434_0

>  <creator>  (500) 
Will Poole

>  <energy minimised>  (500) 
True

$$$$
WPC2893_minimised.pdb
     RDKit          3D

 20 21  0  0  1  0  0  0  0  0999 V2000
   13.4060   -2.2000   22.6700 N   0  0  0  0  0  0  0  0  0  0  0  0
   13.1320   -0.8320   22.2450 C   0  0  1  0  0  0  0  0  0  0  0  0
   13.1020   -0.7890   20.7110 C   0  0  0  0  0  0  0  0  0  0  0  0
   14.4220   -0.8080   20.1610 O   0  0  0  0  0  0  0  0  0  0  0  0
   11.8430   -0.3020   22.8630 C   0  0  0  0  0  0  0  0  0  0  0  0
   10.5860   -0.6060   22.3040 C   0  0  0  0  0  0  0  0  0  0  0  0
    9.4160   -0.0550   22.8490 C   0  0  0  0  0  0  0  0  0  0  0  0
   11.9040    0.5470   23.9840 C   0  0  0  0  0  0  0  0  0  0  0  0
   10.7290    1.0730   24.5440 C   0  0  0  0  0  0  0  0  0  0  0  0
    8.1640   -0.2590   22.2430 N   0  0  0  0  0  0  0  0  0  0  0  0
    9.4850    0.7700   23.9780 C   0  0  0  0  0  0  0  0  0  0  0  0
    7.8680    0.0250   20.9390 C   0  0  0  0  0  0  0  0  0  0  0  0
    8.6870    0.2720   20.0750 O   0  0  0  0  0  0  0  0  0  0  0  0
    6.5190    0.0500   20.7240 N   0  0  0  0  0  0  0  0  0  0  0  0
    5.8790    0.5930   19.5880 C   0  0  0  0  0  0  0  0  0  0  0  0
    6.2810    0.2730   18.2750 C   0  0  0  0  0  0  0  0  0  0  0  0
    4.8720    1.5460   19.7810 C   0  0  0  0  0  0  0  0  0  0  0  0
    5.7370    0.8390   17.1770 N   0  0  0  0  0  0  0  0  0  0  0  0
    4.3250    2.1520   18.6440 C   0  0  0  0  0  0  0  0  0  0  0  0
    4.7990    1.7940   17.3750 C   0  0  0  0  0  0  0  0  0  0  0  0
  2  1  1  6
  2  3  1  0
  2  5  1  0
  3  4  1  0
  5  8  2  0
  5  6  1  0
  6  7  2  0
  7 10  1  0
  7 11  1  0
  8  9  1  0
  9 11  2  0
 10 12  1  0
 12 13  2  0
 12 14  1  0
 14 15  1  0
 15 16  2  0
 15 17  1  0
 16 18  1  0
 17 19  2  0
 18 20  2  0
 19 20  1  0
M  END
>  <original SMILES>  (501) 
NC(CO)c1cccc(NC(=O)Nc2cccnc2)c1

>  <AutoDock Predicted Affinity>  (501) 
-5.296485

>  <ref_pdb>  (501) 
x0434_0

>  <ref_mols>  (501) 
x0434_0

>  <creator>  (501) 
Will Poole

>  <energy minimised>  (501) 
True

$$$$
WPC2738_minimised.pdb
     RDKit          3D

 20 21  0  0  1  0  0  0  0  0999 V2000
   12.1040   -2.4980   23.3010 N   0  0  0  0  0  0  0  0  0  0  0  0
   11.9440   -1.0810   22.9950 C   0  0  1  0  0  0  0  0  0  0  0  0
   12.1530   -0.8630   21.4890 C   0  0  0  0  0  0  0  0  0  0  0  0
   13.8930   -1.1590   20.9450 S   0  0  0  0  0  0  0  0  0  0  0  0
   10.6090   -0.5850   23.5290 C   0  0  0  0  0  0  0  0  0  0  0  0
    9.4830   -0.4720   22.6960 C   0  0  0  0  0  0  0  0  0  0  0  0
    8.2710    0.0190   23.1990 C   0  0  0  0  0  0  0  0  0  0  0  0
   10.4870   -0.2540   24.8900 C   0  0  0  0  0  0  0  0  0  0  0  0
    9.2650    0.2030   25.4070 C   0  0  0  0  0  0  0  0  0  0  0  0
    7.1470    0.1720   22.3640 N   0  0  0  0  0  0  0  0  0  0  0  0
    8.1580    0.3490   24.5580 C   0  0  0  0  0  0  0  0  0  0  0  0
    7.1180    0.4740   21.0290 C   0  0  0  0  0  0  0  0  0  0  0  0
    8.0850    0.6080   20.2990 O   0  0  0  0  0  0  0  0  0  0  0  0
    5.8270    0.6090   20.6050 N   0  0  0  0  0  0  0  0  0  0  0  0
    5.3990    1.0960   19.3540 C   0  0  0  0  0  0  0  0  0  0  0  0
    6.0130    0.7170   18.1410 C   0  0  0  0  0  0  0  0  0  0  0  0
    4.3750    2.0480   19.3350 C   0  0  0  0  0  0  0  0  0  0  0  0
    5.6780    1.2500   16.9470 N   0  0  0  0  0  0  0  0  0  0  0  0
    4.0370    2.6090   18.1010 C   0  0  0  0  0  0  0  0  0  0  0  0
    4.7340    2.2200   16.9520 C   0  0  0  0  0  0  0  0  0  0  0  0
  2  1  1  6
  2  3  1  0
  2  5  1  0
  3  4  1  0
  5  8  2  0
  5  6  1  0
  6  7  2  0
  7 10  1  0
  7 11  1  0
  8  9  1  0
  9 11  2  0
 10 12  1  0
 12 13  2  0
 12 14  1  0
 14 15  1  0
 15 16  2  0
 15 17  1  0
 16 18  1  0
 17 19  2  0
 18 20  2  0
 19 20  1  0
M  END
>  <original SMILES>  (502) 
NC(CS)c1cccc(NC(=O)Nc2cccnc2)c1

>  <AutoDock Predicted Affinity>  (502) 
-4.74359

>  <ref_pdb>  (502) 
x0434_0

>  <ref_mols>  (502) 
x0434_0

>  <creator>  (502) 
Will Poole

>  <energy minimised>  (502) 
True

$$$$
WPC2686_minimised.pdb
     RDKit          3D

 24 26  0  0  1  0  0  0  0  0999 V2000
   16.0840    1.0740   16.3410 N   0  0  0  0  0  0  0  0  0  0  0  0
   15.8470    0.7110   17.6100 C   0  0  0  0  0  0  0  0  0  0  0  0
   15.0710   -0.2250   17.9710 N   0  0  0  0  0  0  0  0  0  0  0  0
   15.2840   -0.4750   19.4010 C   0  0  2  0  0  0  0  0  0  0  0  0
   13.9630   -0.2850   20.1900 C   0  0  0  0  0  0  0  0  0  0  0  0
   14.0620   -0.3570   21.7300 C   0  0  0  0  0  0  0  0  0  0  0  0
   12.8190    0.2100   22.4120 C   0  0  0  0  0  0  0  0  0  0  0  0
   11.5210   -0.2450   22.0910 C   0  0  0  0  0  0  0  0  0  0  0  0
   10.3930    0.3340   22.7010 C   0  0  0  0  0  0  0  0  0  0  0  0
   12.9640    1.2540   23.3440 C   0  0  0  0  0  0  0  0  0  0  0  0
   11.8360    1.8270   23.9510 C   0  0  0  0  0  0  0  0  0  0  0  0
   16.4250    0.5100   19.7370 C   0  0  0  0  0  0  0  0  0  0  0  0
   16.7210    1.1630   18.5030 O   0  0  0  0  0  0  0  0  0  0  0  0
    9.0790   -0.0220   22.3230 N   0  0  0  0  0  0  0  0  0  0  0  0
   10.5540    1.3570   23.6430 C   0  0  0  0  0  0  0  0  0  0  0  0
    8.5520    0.2000   21.0800 C   0  0  0  0  0  0  0  0  0  0  0  0
    9.2170    0.4980   20.1120 O   0  0  0  0  0  0  0  0  0  0  0  0
    7.1860    0.1070   21.0220 N   0  0  0  0  0  0  0  0  0  0  0  0
    6.3960    0.5230   19.9190 C   0  0  0  0  0  0  0  0  0  0  0  0
    6.6610    0.0970   18.5980 C   0  0  0  0  0  0  0  0  0  0  0  0
    5.3780    1.4610   20.1320 C   0  0  0  0  0  0  0  0  0  0  0  0
    5.9670    0.5310   17.5210 N   0  0  0  0  0  0  0  0  0  0  0  0
    4.6820    1.9390   19.0140 C   0  0  0  0  0  0  0  0  0  0  0  0
    5.0190    1.4700   17.7350 C   0  0  0  0  0  0  0  0  0  0  0  0
  1  2  1  0
  2  3  2  0
  2 13  1  0
  3  4  1  0
  4 12  1  0
  4  5  1  1
  5  6  1  0
  6  7  1  0
  7 10  1  0
  7  8  2  0
  8  9  1  0
  9 14  1  0
  9 15  2  0
 10 11  2  0
 11 15  1  0
 12 13  1  0
 14 16  1  0
 16 17  2  0
 16 18  1  0
 18 19  1  0
 19 20  2  0
 19 21  1  0
 20 22  1  0
 21 23  2  0
 22 24  2  0
 23 24  1  0
M  END
>  <original SMILES>  (503) 
NC1=NC(CCc2cccc(NC(=O)Nc3cccnc3)c2)CO1

>  <AutoDock Predicted Affinity>  (503) 
-6.20302

>  <ref_pdb>  (503) 
x0434_0

>  <ref_mols>  (503) 
x0434_0

>  <creator>  (503) 
Will Poole

>  <energy minimised>  (503) 
True

$$$$
WPC2687_minimised.pdb
     RDKit          3D

 21 23  0  0  1  0  0  0  0  0999 V2000
   13.9760   -2.5570   21.0990 N   0  0  0  0  0  0  0  0  0  0  0  0
   13.5270   -1.2180   21.3670 C   0  0  1  0  0  0  0  0  0  0  0  0
   12.0460   -0.9980   21.2830 C   0  0  0  0  0  0  0  0  0  0  0  0
   12.7340   -0.9630   22.6250 C   0  0  2  0  0  0  0  0  0  0  0  0
   12.9420    0.2930   23.2400 O   0  0  0  0  0  0  0  0  0  0  0  0
   11.9250    1.2140   23.3330 C   0  0  0  0  0  0  0  0  0  0  0  0
   10.5820    0.8100   23.3170 C   0  0  0  0  0  0  0  0  0  0  0  0
    9.5710    1.7610   23.1690 C   0  0  0  0  0  0  0  0  0  0  0  0
   12.2430    2.5790   23.2930 C   0  0  0  0  0  0  0  0  0  0  0  0
   11.2220    3.5410   23.2220 C   0  0  0  0  0  0  0  0  0  0  0  0
    8.2870    1.3240   22.8060 N   0  0  0  0  0  0  0  0  0  0  0  0
    9.8820    3.1280   23.1450 C   0  0  0  0  0  0  0  0  0  0  0  0
    7.9680    0.9910   21.5160 C   0  0  0  0  0  0  0  0  0  0  0  0
    8.7820    0.9230   20.6140 O   0  0  0  0  0  0  0  0  0  0  0  0
    6.6310    0.7820   21.3150 N   0  0  0  0  0  0  0  0  0  0  0  0
    5.9800    0.9320   20.0670 C   0  0  0  0  0  0  0  0  0  0  0  0
    6.4510    0.3380   18.8710 C   0  0  0  0  0  0  0  0  0  0  0  0
    4.9090    1.8300   20.0020 C   0  0  0  0  0  0  0  0  0  0  0  0
    5.9310    0.6110   17.6520 N   0  0  0  0  0  0  0  0  0  0  0  0
    4.3880    2.1330   18.7410 C   0  0  0  0  0  0  0  0  0  0  0  0
    4.9480    1.5390   17.6030 C   0  0  0  0  0  0  0  0  0  0  0  0
  2  1  1  1
  2  3  1  0
  2  4  1  0
  3  4  1  0
  4  5  1  6
  5  6  1  0
  6  9  1  0
  6  7  2  0
  7  8  1  0
  8 11  1  0
  8 12  2  0
  9 10  2  0
 10 12  1  0
 11 13  1  0
 13 14  2  0
 13 15  1  0
 15 16  1  0
 16 17  2  0
 16 18  1  0
 17 19  1  0
 18 20  2  0
 19 21  2  0
 20 21  1  0
M  END
>  <original SMILES>  (504) 
NC1CC1Oc1cccc(NC(=O)Nc2cccnc2)c1

>  <AutoDock Predicted Affinity>  (504) 
-5.38905

>  <ref_pdb>  (504) 
x0434_0

>  <ref_mols>  (504) 
x0434_0

>  <creator>  (504) 
Will Poole

>  <energy minimised>  (504) 
True

$$$$
WPC2750_minimised.pdb
     RDKit          3D

 20 22  0  0  1  0  0  0  0  0999 V2000
   14.3130   -1.2840   20.3120 N   0  0  0  0  0  0  0  0  0  0  0  0
   13.0980   -1.1760   21.0660 C   0  0  1  0  0  0  0  0  0  0  0  0
   12.9950   -1.9780   22.3310 C   0  0  0  0  0  0  0  0  0  0  0  0
   13.1870   -0.4800   22.3970 C   0  0  2  0  0  0  0  0  0  0  0  0
   12.1020    0.4660   22.8200 C   0  0  0  0  0  0  0  0  0  0  0  0
   10.7520    0.1560   22.5880 C   0  0  0  0  0  0  0  0  0  0  0  0
    9.7440    1.0750   22.9030 C   0  0  0  0  0  0  0  0  0  0  0  0
   12.4300    1.7140   23.3770 C   0  0  0  0  0  0  0  0  0  0  0  0
   11.4200    2.6340   23.7080 C   0  0  0  0  0  0  0  0  0  0  0  0
    8.4140    0.8000   22.5300 N   0  0  0  0  0  0  0  0  0  0  0  0
   10.0740    2.3110   23.4750 C   0  0  0  0  0  0  0  0  0  0  0  0
    8.0100    0.6380   21.2330 C   0  0  0  0  0  0  0  0  0  0  0  0
    8.7760    0.5980   20.2900 O   0  0  0  0  0  0  0  0  0  0  0  0
    6.6520    0.5710   21.0820 N   0  0  0  0  0  0  0  0  0  0  0  0
    5.9630    0.8370   19.8750 C   0  0  0  0  0  0  0  0  0  0  0  0
    6.3650    0.3100   18.6250 C   0  0  0  0  0  0  0  0  0  0  0  0
    4.9220    1.7710   19.9130 C   0  0  0  0  0  0  0  0  0  0  0  0
    5.8110    0.6830   17.4490 N   0  0  0  0  0  0  0  0  0  0  0  0
    4.3610    2.1710   18.6970 C   0  0  0  0  0  0  0  0  0  0  0  0
    4.8580    1.6410   17.5000 C   0  0  0  0  0  0  0  0  0  0  0  0
  2  1  1  1
  2  3  1  0
  2  4  1  0
  3  4  1  0
  4  5  1  6
  5  8  1  0
  5  6  2  0
  6  7  1  0
  7 10  1  0
  7 11  2  0
  8  9  2  0
  9 11  1  0
 10 12  1  0
 12 13  2  0
 12 14  1  0
 14 15  1  0
 15 16  2  0
 15 17  1  0
 16 18  1  0
 17 19  2  0
 18 20  2  0
 19 20  1  0
M  END
>  <original SMILES>  (505) 
NC1CC1c1cccc(NC(=O)Nc2cccnc2)c1

>  <AutoDock Predicted Affinity>  (505) 
-5.74497

>  <ref_pdb>  (505) 
x0434_0

>  <ref_mols>  (505) 
x0434_0

>  <creator>  (505) 
Will Poole

>  <energy minimised>  (505) 
True

$$$$
WPC2693_minimised.pdb
     RDKit          3D

 22 24  0  0  1  0  0  0  0  0999 V2000
   12.7360   -2.8170   20.5940 N   0  0  0  0  0  0  0  0  0  0  0  0
   13.4720   -1.7570   20.9490 C   0  0  1  0  0  0  0  0  0  0  0  0
   13.3950   -0.6770   20.3000 N   0  0  0  0  0  0  0  0  0  0  0  0
   13.5660    0.4340   21.2480 C   0  0  0  0  0  0  0  0  0  0  0  0
   13.3860   -0.2410   22.6120 C   0  0  1  0  0  0  0  0  0  0  0  0
   11.9950   -0.0850   23.2300 C   0  0  0  0  0  0  0  0  0  0  0  0
   10.8130   -0.1930   22.4660 C   0  0  0  0  0  0  0  0  0  0  0  0
    9.5520   -0.0980   23.0880 C   0  0  0  0  0  0  0  0  0  0  0  0
   11.8890    0.1070   24.6160 C   0  0  0  0  0  0  0  0  0  0  0  0
   10.6370    0.1660   25.2430 C   0  0  0  0  0  0  0  0  0  0  0  0
   13.5720   -1.6160   22.2730 O   0  0  0  0  0  0  0  0  0  0  0  0
    8.3360   -0.1820   22.3750 N   0  0  0  0  0  0  0  0  0  0  0  0
    9.4700    0.0690   24.4770 C   0  0  0  0  0  0  0  0  0  0  0  0
    8.0700    0.2220   21.0950 C   0  0  0  0  0  0  0  0  0  0  0  0
    8.8920    0.5910   20.2800 O   0  0  0  0  0  0  0  0  0  0  0  0
    6.7280    0.1820   20.8420 N   0  0  0  0  0  0  0  0  0  0  0  0
    6.0760    0.6850   19.6960 C   0  0  0  0  0  0  0  0  0  0  0  0
    6.4720    0.3260   18.3900 C   0  0  0  0  0  0  0  0  0  0  0  0
    5.0380    1.6090   19.8650 C   0  0  0  0  0  0  0  0  0  0  0  0
    5.8830    0.8180   17.2790 N   0  0  0  0  0  0  0  0  0  0  0  0
    4.4540    2.1480   18.7130 C   0  0  0  0  0  0  0  0  0  0  0  0
    4.9150    1.7470   17.4520 C   0  0  0  0  0  0  0  0  0  0  0  0
  2  1  1  1
  2 11  1  0
  2  3  1  0
  3  4  1  0
  4  5  1  0
  5  6  1  6
  5 11  1  0
  6  9  1  0
  6  7  2  0
  7  8  1  0
  8 12  1  0
  8 13  2  0
  9 10  2  0
 10 13  1  0
 12 14  1  0
 14 15  2  0
 14 16  1  0
 16 17  1  0
 17 18  2  0
 17 19  1  0
 18 20  1  0
 19 21  2  0
 20 22  2  0
 21 22  1  0
M  END
>  <original SMILES>  (506) 
NC1NCC(c2cccc(NC(=O)Nc3cccnc3)c2)O1

>  <AutoDock Predicted Affinity>  (506) 
-6.63972

>  <ref_pdb>  (506) 
x0434_0

>  <ref_mols>  (506) 
x0434_0

>  <creator>  (506) 
Will Poole

>  <energy minimised>  (506) 
True

$$$$
WPC2879_minimised.pdb
     RDKit          3D

 20 21  0  0  1  0  0  0  0  0999 V2000
   14.0870   -1.0800   20.2600 N   0  0  0  0  0  0  0  0  0  0  0  0
   13.5880   -0.0570   21.2040 C   0  0  0  0  0  0  0  0  0  0  0  0
   13.0990   -0.6290   22.5530 C   0  0  2  0  0  0  0  0  0  0  0  0
   12.9350   -2.0860   22.5140 N   0  0  0  0  0  0  0  0  0  0  0  0
   11.8180    0.0370   23.0240 C   0  0  0  0  0  0  0  0  0  0  0  0
   10.5870   -0.2470   22.4020 C   0  0  0  0  0  0  0  0  0  0  0  0
    9.4050    0.3460   22.8710 C   0  0  0  0  0  0  0  0  0  0  0  0
   11.8520    0.9430   24.0970 C   0  0  0  0  0  0  0  0  0  0  0  0
   10.6690    1.5410   24.5590 C   0  0  0  0  0  0  0  0  0  0  0  0
    8.1600    0.0760   22.2720 N   0  0  0  0  0  0  0  0  0  0  0  0
    9.4450    1.2330   23.9530 C   0  0  0  0  0  0  0  0  0  0  0  0
    7.8620    0.2200   20.9470 C   0  0  0  0  0  0  0  0  0  0  0  0
    8.6770    0.4110   20.0650 O   0  0  0  0  0  0  0  0  0  0  0  0
    6.5130    0.1720   20.7280 N   0  0  0  0  0  0  0  0  0  0  0  0
    5.8540    0.6590   19.5780 C   0  0  0  0  0  0  0  0  0  0  0  0
    6.2710    0.3360   18.2690 C   0  0  0  0  0  0  0  0  0  0  0  0
    4.8150    1.5800   19.7550 C   0  0  0  0  0  0  0  0  0  0  0  0
    5.7090    0.8680   17.1630 N   0  0  0  0  0  0  0  0  0  0  0  0
    4.2570    2.1580   18.6110 C   0  0  0  0  0  0  0  0  0  0  0  0
    4.7460    1.8000   17.3470 C   0  0  0  0  0  0  0  0  0  0  0  0
  1  2  1  0
  2  3  1  0
  3  4  1  6
  3  5  1  0
  5  8  2  0
  5  6  1  0
  6  7  2  0
  7 10  1  0
  7 11  1  0
  8  9  1  0
  9 11  2  0
 10 12  1  0
 12 13  2  0
 12 14  1  0
 14 15  1  0
 15 16  2  0
 15 17  1  0
 16 18  1  0
 17 19  2  0
 18 20  2  0
 19 20  1  0
M  END
>  <original SMILES>  (507) 
NCC(N)c1cccc(NC(=O)Nc2cccnc2)c1

>  <AutoDock Predicted Affinity>  (507) 
-5.036617

>  <ref_pdb>  (507) 
x0434_0

>  <ref_mols>  (507) 
x0434_0

>  <creator>  (507) 
Will Poole

>  <energy minimised>  (507) 
True

$$$$
WPC2679_minimised.pdb
     RDKit          3D

 20 21  0  0  1  0  0  0  0  0999 V2000
   14.1650   -1.2450   20.5790 N   0  0  0  0  0  0  0  0  0  0  0  0
   12.9940   -0.5670   21.1460 C   0  0  0  0  0  0  0  0  0  0  0  0
   12.7690   -0.9610   22.6130 C   0  0  2  0  0  0  0  0  0  0  0  0
   12.6780   -2.3810   22.7220 O   0  0  0  0  0  0  0  0  0  0  0  0
   11.5100   -0.3250   23.1730 C   0  0  0  0  0  0  0  0  0  0  0  0
   10.2660   -0.5610   22.5600 C   0  0  0  0  0  0  0  0  0  0  0  0
    9.1120    0.0730   23.0380 C   0  0  0  0  0  0  0  0  0  0  0  0
   11.5800    0.5390   24.2780 C   0  0  0  0  0  0  0  0  0  0  0  0
   10.4150    1.1420   24.7800 C   0  0  0  0  0  0  0  0  0  0  0  0
    7.8850   -0.0670   22.3660 N   0  0  0  0  0  0  0  0  0  0  0  0
    9.1800    0.9080   24.1610 C   0  0  0  0  0  0  0  0  0  0  0  0
    7.6790    0.1790   21.0370 C   0  0  0  0  0  0  0  0  0  0  0  0
    8.5530    0.3760   20.2120 O   0  0  0  0  0  0  0  0  0  0  0  0
    6.3450    0.2210   20.7500 N   0  0  0  0  0  0  0  0  0  0  0  0
    5.7660    0.7320   19.5690 C   0  0  0  0  0  0  0  0  0  0  0  0
    6.2360    0.3850   18.2840 C   0  0  0  0  0  0  0  0  0  0  0  0
    4.7450    1.6810   19.6900 C   0  0  0  0  0  0  0  0  0  0  0  0
    5.7460    0.9270   17.1490 N   0  0  0  0  0  0  0  0  0  0  0  0
    4.2530    2.2580   18.5160 C   0  0  0  0  0  0  0  0  0  0  0  0
    4.7960    1.8820   17.2810 C   0  0  0  0  0  0  0  0  0  0  0  0
  1  2  1  0
  2  3  1  0
  3  4  1  6
  3  5  1  0
  5  8  2  0
  5  6  1  0
  6  7  2  0
  7 10  1  0
  7 11  1  0
  8  9  1  0
  9 11  2  0
 10 12  1  0
 12 13  2  0
 12 14  1  0
 14 15  1  0
 15 16  2  0
 15 17  1  0
 16 18  1  0
 17 19  2  0
 18 20  2  0
 19 20  1  0
M  END
>  <original SMILES>  (508) 
NCC(O)c1cccc(NC(=O)Nc2cccnc2)c1

>  <AutoDock Predicted Affinity>  (508) 
-5.25083

>  <ref_pdb>  (508) 
x0434_0

>  <ref_mols>  (508) 
x0434_0

>  <creator>  (508) 
Will Poole

>  <energy minimised>  (508) 
True

$$$$
WPC2719_minimised.pdb
     RDKit          3D

 21 23  0  0  1  0  0  0  0  0999 V2000
   14.7960   -0.3410   20.2120 N   0  0  0  0  0  0  0  0  0  0  0  0
   14.1610   -1.4230   20.9610 C   0  0  0  0  0  0  0  0  0  0  0  0
   12.7540   -1.1000   21.4160 C   0  0  1  0  0  0  0  0  0  0  0  0
   12.1870   -1.8330   22.6050 C   0  0  0  0  0  0  0  0  0  0  0  0
   12.5800   -0.3720   22.7250 C   0  0  2  0  0  0  0  0  0  0  0  0
   11.5950    0.7480   22.8730 C   0  0  0  0  0  0  0  0  0  0  0  0
   10.2320    0.5480   22.6100 C   0  0  0  0  0  0  0  0  0  0  0  0
    9.3220    1.6020   22.7280 C   0  0  0  0  0  0  0  0  0  0  0  0
   12.0350    2.0270   23.2560 C   0  0  0  0  0  0  0  0  0  0  0  0
   11.1240    3.0900   23.3750 C   0  0  0  0  0  0  0  0  0  0  0  0
    7.9840    1.3850   22.3530 N   0  0  0  0  0  0  0  0  0  0  0  0
    9.7610    2.8760   23.1150 C   0  0  0  0  0  0  0  0  0  0  0  0
    7.6010    1.0350   21.0900 C   0  0  0  0  0  0  0  0  0  0  0  0
    8.3800    0.8120   20.1830 O   0  0  0  0  0  0  0  0  0  0  0  0
    6.2460    1.0010   20.9270 N   0  0  0  0  0  0  0  0  0  0  0  0
    5.5780    1.2000   19.6980 C   0  0  0  0  0  0  0  0  0  0  0  0
    6.0110    0.6280   18.4780 C   0  0  0  0  0  0  0  0  0  0  0  0
    4.5360    2.1320   19.6810 C   0  0  0  0  0  0  0  0  0  0  0  0
    5.4960    0.9700   17.2770 N   0  0  0  0  0  0  0  0  0  0  0  0
    4.0130    2.4970   18.4400 C   0  0  0  0  0  0  0  0  0  0  0  0
    4.5490    1.9370   17.2740 C   0  0  0  0  0  0  0  0  0  0  0  0
  1  2  1  0
  3  2  1  1
  3  4  1  0
  3  5  1  0
  4  5  1  0
  5  6  1  6
  6  9  1  0
  6  7  2  0
  7  8  1  0
  8 11  1  0
  8 12  2  0
  9 10  2  0
 10 12  1  0
 11 13  1  0
 13 14  2  0
 13 15  1  0
 15 16  1  0
 16 17  2  0
 16 18  1  0
 17 19  1  0
 18 20  2  0
 19 21  2  0
 20 21  1  0
M  END
>  <original SMILES>  (509) 
NCC1CC1c1cccc(NC(=O)Nc2cccnc2)c1

>  <AutoDock Predicted Affinity>  (509) 
-5.73596

>  <ref_pdb>  (509) 
x0434_0

>  <ref_mols>  (509) 
x0434_0

>  <creator>  (509) 
Will Poole

>  <energy minimised>  (509) 
True

$$$$
WPC2770_minimised.pdb
     RDKit          3D

 23 24  0  0  0  0  0  0  0  0999 V2000
   15.1400    2.3600   18.0400 N   0  0  0  0  0  0  0  0  0  0  0  0
   15.0720    2.2600   19.4960 C   0  0  0  0  0  0  0  0  0  0  0  0
   14.8140    0.7990   19.9050 C   0  0  0  0  0  0  0  0  0  0  0  0
   14.2920    0.6740   21.3530 C   0  0  0  0  0  0  0  0  0  0  0  0
   13.7340   -0.7340   21.6600 C   0  0  0  0  0  0  0  0  0  0  0  0
   12.7330   -0.6390   22.7230 N   0  0  0  0  0  0  0  0  0  0  0  0
   11.8380   -1.8010   22.8430 C   0  0  0  0  0  0  0  0  0  0  0  0
   10.5250   -1.3670   23.4720 C   0  0  0  0  0  0  0  0  0  0  0  0
    9.3430   -1.4020   22.7100 C   0  0  0  0  0  0  0  0  0  0  0  0
    8.1460   -0.8740   23.2260 C   0  0  0  0  0  0  0  0  0  0  0  0
   10.4900   -0.8270   24.7700 C   0  0  0  0  0  0  0  0  0  0  0  0
    9.2880   -0.3480   25.3110 C   0  0  0  0  0  0  0  0  0  0  0  0
    6.9750   -0.7540   22.4430 N   0  0  0  0  0  0  0  0  0  0  0  0
    8.1180   -0.3690   24.5360 C   0  0  0  0  0  0  0  0  0  0  0  0
    6.8920   -0.4700   21.1040 C   0  0  0  0  0  0  0  0  0  0  0  0
    7.7920   -0.5760   20.2950 O   0  0  0  0  0  0  0  0  0  0  0  0
    5.6550    0.0030   20.7690 N   0  0  0  0  0  0  0  0  0  0  0  0
    5.2830    0.6400   19.5610 C   0  0  0  0  0  0  0  0  0  0  0  0
    5.8200    0.2800   18.3030 C   0  0  0  0  0  0  0  0  0  0  0  0
    4.3820    1.7100   19.6310 C   0  0  0  0  0  0  0  0  0  0  0  0
    5.5200    0.9270   17.1580 N   0  0  0  0  0  0  0  0  0  0  0  0
    4.0670    2.3780   18.4430 C   0  0  0  0  0  0  0  0  0  0  0  0
    4.6650    1.9730   17.2420 C   0  0  0  0  0  0  0  0  0  0  0  0
  1  2  1  0
  2  3  1  0
  3  4  1  0
  4  5  1  0
  5  6  1  0
  6  7  1  0
  7  8  1  0
  8 11  2  0
  8  9  1  0
  9 10  2  0
 10 13  1  0
 10 14  1  0
 11 12  1  0
 12 14  2  0
 13 15  1  0
 15 16  2  0
 15 17  1  0
 17 18  1  0
 18 19  2  0
 18 20  1  0
 19 21  1  0
 20 22  2  0
 21 23  2  0
 22 23  1  0
M  END
>  <original SMILES>  (510) 
NCCCCNCc1cccc(NC(=O)Nc2cccnc2)c1

>  <AutoDock Predicted Affinity>  (510) 
-6.03313

>  <ref_pdb>  (510) 
x0434_0

>  <ref_mols>  (510) 
x0434_0

>  <creator>  (510) 
Will Poole

>  <energy minimised>  (510) 
True

$$$$
WPC2915_minimised.pdb
     RDKit          3D

 22 23  0  0  0  0  0  0  0  0999 V2000
   15.3250    0.7980   18.8500 N   0  0  0  0  0  0  0  0  0  0  0  0
   15.8690    1.0120   20.1830 C   0  0  0  0  0  0  0  0  0  0  0  0
   14.7880    0.9250   21.2840 C   0  0  0  0  0  0  0  0  0  0  0  0
   14.1340   -0.4710   21.4260 C   0  0  0  0  0  0  0  0  0  0  0  0
   12.6880   -0.3970   21.9600 C   0  0  0  0  0  0  0  0  0  0  0  0
   12.5600    0.5750   23.5240 S   0  0  0  0  0  0  0  0  0  0  0  0
   10.8620    0.3070   23.9960 C   0  0  0  0  0  0  0  0  0  0  0  0
    9.8380    0.4160   23.0440 C   0  0  0  0  0  0  0  0  0  0  0  0
    8.5040    0.1680   23.4100 C   0  0  0  0  0  0  0  0  0  0  0  0
   10.5450   -0.0240   25.3220 C   0  0  0  0  0  0  0  0  0  0  0  0
    9.2140   -0.2420   25.7020 C   0  0  0  0  0  0  0  0  0  0  0  0
    7.4260    0.2440   22.5020 N   0  0  0  0  0  0  0  0  0  0  0  0
    8.1960   -0.1540   24.7410 C   0  0  0  0  0  0  0  0  0  0  0  0
    7.3930    0.5150   21.1590 C   0  0  0  0  0  0  0  0  0  0  0  0
    8.3400    0.7010   20.4160 O   0  0  0  0  0  0  0  0  0  0  0  0
    6.0930    0.5540   20.7450 N   0  0  0  0  0  0  0  0  0  0  0  0
    5.6030    1.0170   19.5080 C   0  0  0  0  0  0  0  0  0  0  0  0
    6.1520    0.6150   18.2710 C   0  0  0  0  0  0  0  0  0  0  0  0
    4.5640    1.9520   19.5270 C   0  0  0  0  0  0  0  0  0  0  0  0
    5.7190    1.0920   17.0840 N   0  0  0  0  0  0  0  0  0  0  0  0
    4.1360    2.4690   18.3020 C   0  0  0  0  0  0  0  0  0  0  0  0
    4.7520    2.0400   17.1200 C   0  0  0  0  0  0  0  0  0  0  0  0
  1  2  1  0
  2  3  1  0
  3  4  1  0
  4  5  1  0
  5  6  1  0
  6  7  1  0
  7 10  2  0
  7  8  1  0
  8  9  2  0
  9 12  1  0
  9 13  1  0
 10 11  1  0
 11 13  2  0
 12 14  1  0
 14 15  2  0
 14 16  1  0
 16 17  1  0
 17 18  2  0
 17 19  1  0
 18 20  1  0
 19 21  2  0
 20 22  2  0
 21 22  1  0
M  END
>  <original SMILES>  (511) 
NCCCCSc1cccc(NC(=O)Nc2cccnc2)c1

>  <AutoDock Predicted Affinity>  (511) 
-4.90362

>  <ref_pdb>  (511) 
x0434_0

>  <ref_mols>  (511) 
x0434_0

>  <creator>  (511) 
Will Poole

>  <energy minimised>  (511) 
True

$$$$
WPC2702_minimised.pdb
     RDKit          3D

 21 22  0  0  0  0  0  0  0  0999 V2000
   17.1720    1.2250   18.5490 N   0  0  0  0  0  0  0  0  0  0  0  0
   15.9030    1.5290   19.1820 C   0  0  0  0  0  0  0  0  0  0  0  0
   15.2730    0.3100   19.8660 C   0  0  0  0  0  0  0  0  0  0  0  0
   14.3950    0.7350   21.0710 C   0  0  0  0  0  0  0  0  0  0  0  0
   13.5900   -0.4270   21.6860 C   0  0  0  0  0  0  0  0  0  0  0  0
   12.3680    0.0750   22.4490 C   0  0  0  0  0  0  0  0  0  0  0  0
   11.0700   -0.2620   22.0180 C   0  0  0  0  0  0  0  0  0  0  0  0
    9.9390    0.2450   22.6800 C   0  0  0  0  0  0  0  0  0  0  0  0
   12.5190    0.9290   23.5570 C   0  0  0  0  0  0  0  0  0  0  0  0
   11.3870    1.4350   24.2170 C   0  0  0  0  0  0  0  0  0  0  0  0
    8.6290   -0.0210   22.2240 N   0  0  0  0  0  0  0  0  0  0  0  0
   10.1010    1.0840   23.7880 C   0  0  0  0  0  0  0  0  0  0  0  0
    8.1750    0.1700   20.9470 C   0  0  0  0  0  0  0  0  0  0  0  0
    8.8850    0.4040   19.9910 O   0  0  0  0  0  0  0  0  0  0  0  0
    6.8090    0.1160   20.8490 N   0  0  0  0  0  0  0  0  0  0  0  0
    6.0610    0.5630   19.7320 C   0  0  0  0  0  0  0  0  0  0  0  0
    6.3790    0.1870   18.4080 C   0  0  0  0  0  0  0  0  0  0  0  0
    5.0330    1.4900   19.9430 C   0  0  0  0  0  0  0  0  0  0  0  0
    5.7270    0.6620   17.3240 N   0  0  0  0  0  0  0  0  0  0  0  0
    4.3830    2.0140   18.8190 C   0  0  0  0  0  0  0  0  0  0  0  0
    4.7730    1.5960   17.5390 C   0  0  0  0  0  0  0  0  0  0  0  0
  1  2  1  0
  2  3  1  0
  3  4  1  0
  4  5  1  0
  5  6  1  0
  6  9  2  0
  6  7  1  0
  7  8  2  0
  8 11  1  0
  8 12  1  0
  9 10  1  0
 10 12  2  0
 11 13  1  0
 13 14  2  0
 13 15  1  0
 15 16  1  0
 16 17  2  0
 16 18  1  0
 17 19  1  0
 18 20  2  0
 19 21  2  0
 20 21  1  0
M  END
>  <original SMILES>  (512) 
NCCCCc1cccc(NC(=O)Nc2cccnc2)c1

>  <AutoDock Predicted Affinity>  (512) 
-4.99653

>  <ref_pdb>  (512) 
x0434_0

>  <ref_mols>  (512) 
x0434_0

>  <creator>  (512) 
Will Poole

>  <energy minimised>  (512) 
True

$$$$
WPC2801_minimised.pdb
     RDKit          3D

 21 22  0  0  0  0  0  0  0  0999 V2000
   16.1090    1.2660   18.6510 N   0  0  0  0  0  0  0  0  0  0  0  0
   15.7830    0.6530   19.9360 C   0  0  0  0  0  0  0  0  0  0  0  0
   14.6950   -0.4330   19.8260 C   0  0  0  0  0  0  0  0  0  0  0  0
   13.4300   -0.1390   20.6510 C   0  0  0  0  0  0  0  0  0  0  0  0
   13.7490   -0.0800   22.4530 S   0  0  0  0  0  0  0  0  0  0  0  0
   12.1240    0.0630   23.1930 C   0  0  0  0  0  0  0  0  0  0  0  0
   10.9270   -0.0290   22.4560 C   0  0  0  0  0  0  0  0  0  0  0  0
    9.6830    0.0430   23.1070 C   0  0  0  0  0  0  0  0  0  0  0  0
   12.0590    0.2270   24.5820 C   0  0  0  0  0  0  0  0  0  0  0  0
   10.8210    0.2670   25.2420 C   0  0  0  0  0  0  0  0  0  0  0  0
    8.4530   -0.0410   22.4150 N   0  0  0  0  0  0  0  0  0  0  0  0
    9.6350    0.1780   24.5020 C   0  0  0  0  0  0  0  0  0  0  0  0
    8.1620    0.2870   21.1180 C   0  0  0  0  0  0  0  0  0  0  0  0
    8.9630    0.6120   20.2630 O   0  0  0  0  0  0  0  0  0  0  0  0
    6.8160    0.2240   20.8890 N   0  0  0  0  0  0  0  0  0  0  0  0
    6.1340    0.6800   19.7390 C   0  0  0  0  0  0  0  0  0  0  0  0
    6.5020    0.2850   18.4350 C   0  0  0  0  0  0  0  0  0  0  0  0
    5.0890    1.5970   19.9040 C   0  0  0  0  0  0  0  0  0  0  0  0
    5.8820    0.7370   17.3230 N   0  0  0  0  0  0  0  0  0  0  0  0
    4.4740    2.0970   18.7510 C   0  0  0  0  0  0  0  0  0  0  0  0
    4.9100    1.6630   17.4920 C   0  0  0  0  0  0  0  0  0  0  0  0
  1  2  1  0
  2  3  1  0
  3  4  1  0
  4  5  1  0
  5  6  1  0
  6  9  2  0
  6  7  1  0
  7  8  2  0
  8 11  1  0
  8 12  1  0
  9 10  1  0
 10 12  2  0
 11 13  1  0
 13 14  2  0
 13 15  1  0
 15 16  1  0
 16 17  2  0
 16 18  1  0
 17 19  1  0
 18 20  2  0
 19 21  2  0
 20 21  1  0
M  END
>  <original SMILES>  (513) 
NCCCSc1cccc(NC(=O)Nc2cccnc2)c1

>  <AutoDock Predicted Affinity>  (513) 
-5.21003

>  <ref_pdb>  (513) 
x0434_0

>  <ref_mols>  (513) 
x0434_0

>  <creator>  (513) 
Will Poole

>  <energy minimised>  (513) 
True

$$$$
WPC2718_minimised.pdb
     RDKit          3D

 20 21  0  0  0  0  0  0  0  0999 V2000
   15.4720    0.5060   19.7610 N   0  0  0  0  0  0  0  0  0  0  0  0
   14.4940   -0.4430   20.3030 C   0  0  0  0  0  0  0  0  0  0  0  0
   13.6240    0.1940   21.3980 C   0  0  0  0  0  0  0  0  0  0  0  0
   12.7160   -0.8680   22.0370 C   0  0  0  0  0  0  0  0  0  0  0  0
   11.5290   -0.2690   22.7680 C   0  0  0  0  0  0  0  0  0  0  0  0
   10.2590   -0.3590   22.1810 C   0  0  0  0  0  0  0  0  0  0  0  0
    9.1360    0.1780   22.8260 C   0  0  0  0  0  0  0  0  0  0  0  0
   11.6720    0.3750   24.0100 C   0  0  0  0  0  0  0  0  0  0  0  0
   10.5420    0.8780   24.6730 C   0  0  0  0  0  0  0  0  0  0  0  0
    7.8640    0.1430   22.2220 N   0  0  0  0  0  0  0  0  0  0  0  0
    9.2740    0.7770   24.0840 C   0  0  0  0  0  0  0  0  0  0  0  0
    7.5860    0.3810   20.9040 C   0  0  0  0  0  0  0  0  0  0  0  0
    8.4110    0.5430   20.0260 O   0  0  0  0  0  0  0  0  0  0  0  0
    6.2400    0.4320   20.6800 N   0  0  0  0  0  0  0  0  0  0  0  0
    5.6160    0.8930   19.5010 C   0  0  0  0  0  0  0  0  0  0  0  0
    6.0540    0.5120   18.2140 C   0  0  0  0  0  0  0  0  0  0  0  0
    4.5860    1.8310   19.6230 C   0  0  0  0  0  0  0  0  0  0  0  0
    5.5250    1.0080   17.0760 N   0  0  0  0  0  0  0  0  0  0  0  0
    4.0580    2.3690   18.4450 C   0  0  0  0  0  0  0  0  0  0  0  0
    4.5720    1.9610   17.2080 C   0  0  0  0  0  0  0  0  0  0  0  0
  1  2  1  0
  2  3  1  0
  3  4  1  0
  4  5  1  0
  5  8  2  0
  5  6  1  0
  6  7  2  0
  7 10  1  0
  7 11  1  0
  8  9  1  0
  9 11  2  0
 10 12  1  0
 12 13  2  0
 12 14  1  0
 14 15  1  0
 15 16  2  0
 15 17  1  0
 16 18  1  0
 17 19  2  0
 18 20  2  0
 19 20  1  0
M  END
>  <original SMILES>  (514) 
NCCCc1cccc(NC(=O)Nc2cccnc2)c1

>  <AutoDock Predicted Affinity>  (514) 
-5.808595

>  <ref_pdb>  (514) 
x0434_0

>  <ref_mols>  (514) 
x0434_0

>  <creator>  (514) 
Will Poole

>  <energy minimised>  (514) 
True

$$$$
WPC2708_minimised.pdb
     RDKit          3D

 23 24  0  0  0  0  0  0  0  0999 V2000
   16.2770    1.2040   16.6310 N   0  0  0  0  0  0  0  0  0  0  0  0
   15.3600    1.1400   17.7680 C   0  0  0  0  0  0  0  0  0  0  0  0
   16.0470    0.7470   19.1020 C   0  0  0  0  0  0  0  0  0  0  0  0
   15.1040    0.5190   20.2210 N   0  0  0  0  0  0  0  0  0  0  0  0
   14.2650   -0.6870   20.1460 C   0  0  0  0  0  0  0  0  0  0  0  0
   13.0170   -0.6130   21.0430 C   0  0  0  0  0  0  0  0  0  0  0  0
   13.3240    0.0260   22.7310 S   0  0  0  0  0  0  0  0  0  0  0  0
   11.6900    0.5650   23.2140 C   0  0  0  0  0  0  0  0  0  0  0  0
   10.5170   -0.0100   22.6870 C   0  0  0  0  0  0  0  0  0  0  0  0
    9.2620    0.5050   23.0460 C   0  0  0  0  0  0  0  0  0  0  0  0
   11.5860    1.6450   24.0980 C   0  0  0  0  0  0  0  0  0  0  0  0
   10.3310    2.1340   24.4910 C   0  0  0  0  0  0  0  0  0  0  0  0
    8.0800    0.0410   22.4400 N   0  0  0  0  0  0  0  0  0  0  0  0
    9.1670    1.5600   23.9620 C   0  0  0  0  0  0  0  0  0  0  0  0
    7.7790    0.2130   21.1180 C   0  0  0  0  0  0  0  0  0  0  0  0
    8.5820    0.5110   20.2550 O   0  0  0  0  0  0  0  0  0  0  0  0
    6.4420    0.0770   20.8700 N   0  0  0  0  0  0  0  0  0  0  0  0
    5.7920    0.5510   19.7080 C   0  0  0  0  0  0  0  0  0  0  0  0
    6.2030    0.1780   18.4090 C   0  0  0  0  0  0  0  0  0  0  0  0
    4.7820    1.5100   19.8540 C   0  0  0  0  0  0  0  0  0  0  0  0
    5.6580    0.6910   17.2850 N   0  0  0  0  0  0  0  0  0  0  0  0
    4.2400    2.0660   18.6900 C   0  0  0  0  0  0  0  0  0  0  0  0
    4.7160    1.6500   17.4390 C   0  0  0  0  0  0  0  0  0  0  0  0
  1  2  1  0
  2  3  1  0
  3  4  1  0
  4  5  1  0
  5  6  1  0
  6  7  1  0
  7  8  1  0
  8 11  2  0
  8  9  1  0
  9 10  2  0
 10 13  1  0
 10 14  1  0
 11 12  1  0
 12 14  2  0
 13 15  1  0
 15 16  2  0
 15 17  1  0
 17 18  1  0
 18 19  2  0
 18 20  1  0
 19 21  1  0
 20 22  2  0
 21 23  2  0
 22 23  1  0
M  END
>  <original SMILES>  (515) 
NCCNCCSc1cccc(NC(=O)Nc2cccnc2)c1

>  <AutoDock Predicted Affinity>  (515) 
-4.94253

>  <ref_pdb>  (515) 
x0434_0

>  <ref_mols>  (515) 
x0434_0

>  <creator>  (515) 
Will Poole

>  <energy minimised>  (515) 
True

$$$$
WPC2779_minimised.pdb
     RDKit          3D

 21 22  0  0  0  0  0  0  0  0999 V2000
   16.7850    0.5610   19.5250 N   0  0  0  0  0  0  0  0  0  0  0  0
   15.3310    0.6240   19.4580 C   0  0  0  0  0  0  0  0  0  0  0  0
   14.6110   -0.5520   20.1470 C   0  0  0  0  0  0  0  0  0  0  0  0
   14.1840   -0.1290   21.8950 S   0  0  0  0  0  0  0  0  0  0  0  0
   12.6950   -1.1850   22.1410 C   0  0  0  0  0  0  0  0  0  0  0  0
   11.5330   -0.4320   22.7690 C   0  0  0  0  0  0  0  0  0  0  0  0
   10.2510   -0.5520   22.2060 C   0  0  0  0  0  0  0  0  0  0  0  0
    9.1540    0.1000   22.7910 C   0  0  0  0  0  0  0  0  0  0  0  0
   11.7090    0.3710   23.9120 C   0  0  0  0  0  0  0  0  0  0  0  0
   10.6070    1.0050   24.5070 C   0  0  0  0  0  0  0  0  0  0  0  0
    7.8680    0.0250   22.2180 N   0  0  0  0  0  0  0  0  0  0  0  0
    9.3290    0.8620   23.9530 C   0  0  0  0  0  0  0  0  0  0  0  0
    7.5630    0.2540   20.9060 C   0  0  0  0  0  0  0  0  0  0  0  0
    8.3770    0.4010   20.0160 O   0  0  0  0  0  0  0  0  0  0  0  0
    6.2150    0.3230   20.6990 N   0  0  0  0  0  0  0  0  0  0  0  0
    5.5900    0.8080   19.5280 C   0  0  0  0  0  0  0  0  0  0  0  0
    6.0220    0.4420   18.2330 C   0  0  0  0  0  0  0  0  0  0  0  0
    4.5740    1.7600   19.6630 C   0  0  0  0  0  0  0  0  0  0  0  0
    5.5000    0.9620   17.1040 N   0  0  0  0  0  0  0  0  0  0  0  0
    4.0520    2.3230   18.4930 C   0  0  0  0  0  0  0  0  0  0  0  0
    4.5570    1.9230   17.2490 C   0  0  0  0  0  0  0  0  0  0  0  0
  1  2  1  0
  2  3  1  0
  3  4  1  0
  4  5  1  0
  5  6  1  0
  6  9  2  0
  6  7  1  0
  7  8  2  0
  8 11  1  0
  8 12  1  0
  9 10  1  0
 10 12  2  0
 11 13  1  0
 13 14  2  0
 13 15  1  0
 15 16  1  0
 16 17  2  0
 16 18  1  0
 17 19  1  0
 18 20  2  0
 19 21  2  0
 20 21  1  0
M  END
>  <original SMILES>  (516) 
NCCSCc1cccc(NC(=O)Nc2cccnc2)c1

>  <AutoDock Predicted Affinity>  (516) 
-4.628715

>  <ref_pdb>  (516) 
x0434_0

>  <ref_mols>  (516) 
x0434_0

>  <creator>  (516) 
Will Poole

>  <energy minimised>  (516) 
True

$$$$
WPC2761_minimised.pdb
     RDKit          3D

 20 21  0  0  0  0  0  0  0  0999 V2000
   15.6840    0.7490   19.3830 N   0  0  0  0  0  0  0  0  0  0  0  0
   14.7360   -0.2140   19.9540 C   0  0  0  0  0  0  0  0  0  0  0  0
   13.9350    0.4020   21.1090 C   0  0  0  0  0  0  0  0  0  0  0  0
   13.1490   -0.9450   22.0630 S   0  0  0  0  0  0  0  0  0  0  0  0
   11.7380   -0.1440   22.7800 C   0  0  0  0  0  0  0  0  0  0  0  0
   10.4790   -0.3360   22.1970 C   0  0  0  0  0  0  0  0  0  0  0  0
    9.3460    0.2670   22.7640 C   0  0  0  0  0  0  0  0  0  0  0  0
   11.8710    0.6630   23.9210 C   0  0  0  0  0  0  0  0  0  0  0  0
   10.7340    1.2580   24.4910 C   0  0  0  0  0  0  0  0  0  0  0  0
    8.0710    0.1180   22.1870 N   0  0  0  0  0  0  0  0  0  0  0  0
    9.4720    1.0530   23.9160 C   0  0  0  0  0  0  0  0  0  0  0  0
    7.7610    0.3100   20.8710 C   0  0  0  0  0  0  0  0  0  0  0  0
    8.5680    0.4750   19.9780 O   0  0  0  0  0  0  0  0  0  0  0  0
    6.4090    0.3320   20.6740 N   0  0  0  0  0  0  0  0  0  0  0  0
    5.7530    0.8040   19.5160 C   0  0  0  0  0  0  0  0  0  0  0  0
    6.1610    0.4460   18.2120 C   0  0  0  0  0  0  0  0  0  0  0  0
    4.7190    1.7340   19.6760 C   0  0  0  0  0  0  0  0  0  0  0  0
    5.5930    0.9490   17.0960 N   0  0  0  0  0  0  0  0  0  0  0  0
    4.1540    2.2830   18.5200 C   0  0  0  0  0  0  0  0  0  0  0  0
    4.6350    1.8900   17.2640 C   0  0  0  0  0  0  0  0  0  0  0  0
  1  2  1  0
  2  3  1  0
  3  4  1  0
  4  5  1  0
  5  8  2  0
  5  6  1  0
  6  7  2  0
  7 10  1  0
  7 11  1  0
  8  9  1  0
  9 11  2  0
 10 12  1  0
 12 13  2  0
 12 14  1  0
 14 15  1  0
 15 16  2  0
 15 17  1  0
 16 18  1  0
 17 19  2  0
 18 20  2  0
 19 20  1  0
M  END
>  <original SMILES>  (517) 
NCCSc1cccc(NC(=O)Nc2cccnc2)c1

>  <AutoDock Predicted Affinity>  (517) 
-5.31175

>  <ref_pdb>  (517) 
x0434_0

>  <ref_mols>  (517) 
x0434_0

>  <creator>  (517) 
Will Poole

>  <energy minimised>  (517) 
True

$$$$
WPC2867_minimised.pdb
     RDKit          3D

 19 20  0  0  0  0  0  0  0  0999 V2000
   14.3700   -1.1410   20.2230 N   0  0  0  0  0  0  0  0  0  0  0  0
   13.3610   -0.3710   20.9540 C   0  0  0  0  0  0  0  0  0  0  0  0
   13.0860   -0.9190   22.3520 C   0  0  0  0  0  0  0  0  0  0  0  0
   11.8750   -0.2220   22.9470 C   0  0  0  0  0  0  0  0  0  0  0  0
   10.5990   -0.4920   22.4240 C   0  0  0  0  0  0  0  0  0  0  0  0
    9.4760    0.1860   22.9180 C   0  0  0  0  0  0  0  0  0  0  0  0
   12.0170    0.7380   23.9640 C   0  0  0  0  0  0  0  0  0  0  0  0
   10.8860    1.4040   24.4670 C   0  0  0  0  0  0  0  0  0  0  0  0
    8.2070   -0.0110   22.3450 N   0  0  0  0  0  0  0  0  0  0  0  0
    9.6150    1.1210   23.9490 C   0  0  0  0  0  0  0  0  0  0  0  0
    7.8930    0.2320   21.0370 C   0  0  0  0  0  0  0  0  0  0  0  0
    8.6990    0.4940   20.1660 O   0  0  0  0  0  0  0  0  0  0  0  0
    6.5430    0.1900   20.8200 N   0  0  0  0  0  0  0  0  0  0  0  0
    5.8880    0.6640   19.6610 C   0  0  0  0  0  0  0  0  0  0  0  0
    6.3060    0.3120   18.3590 C   0  0  0  0  0  0  0  0  0  0  0  0
    4.8510    1.5910   19.8160 C   0  0  0  0  0  0  0  0  0  0  0  0
    5.7450    0.8180   17.2400 N   0  0  0  0  0  0  0  0  0  0  0  0
    4.2950    2.1440   18.6580 C   0  0  0  0  0  0  0  0  0  0  0  0
    4.7840    1.7560   17.4040 C   0  0  0  0  0  0  0  0  0  0  0  0
  1  2  1  0
  2  3  1  0
  3  4  1  0
  4  7  2  0
  4  5  1  0
  5  6  2  0
  6  9  1  0
  6 10  1  0
  7  8  1  0
  8 10  2  0
  9 11  1  0
 11 12  2  0
 11 13  1  0
 13 14  1  0
 14 15  2  0
 14 16  1  0
 15 17  1  0
 16 18  2  0
 17 19  2  0
 18 19  1  0
M  END
>  <original SMILES>  (518) 
NCCc1cccc(NC(=O)Nc2cccnc2)c1

>  <AutoDock Predicted Affinity>  (518) 
-5.61792

>  <ref_pdb>  (518) 
x0434_0

>  <ref_mols>  (518) 
x0434_0

>  <creator>  (518) 
Will Poole

>  <energy minimised>  (518) 
True

$$$$
WPC2724_minimised.pdb
     RDKit          3D

 18 19  0  0  0  0  0  0  0  0999 V2000
   13.9650   -1.0800   20.6590 N   0  0  0  0  0  0  0  0  0  0  0  0
   13.5770   -1.2100   22.0640 C   0  0  0  0  0  0  0  0  0  0  0  0
   12.4350   -0.2830   22.4350 C   0  0  0  0  0  0  0  0  0  0  0  0
   11.1040   -0.6250   22.1320 C   0  0  0  0  0  0  0  0  0  0  0  0
   10.0500    0.2120   22.5350 C   0  0  0  0  0  0  0  0  0  0  0  0
   12.7010    0.9170   23.1220 C   0  0  0  0  0  0  0  0  0  0  0  0
   11.6480    1.7630   23.5050 C   0  0  0  0  0  0  0  0  0  0  0  0
    8.7110   -0.0910   22.2080 N   0  0  0  0  0  0  0  0  0  0  0  0
   10.3230    1.4030   23.2220 C   0  0  0  0  0  0  0  0  0  0  0  0
    8.1840    0.0490   20.9560 C   0  0  0  0  0  0  0  0  0  0  0  0
    8.8540    0.2530   19.9670 O   0  0  0  0  0  0  0  0  0  0  0  0
    6.8160    0.0050   20.9090 N   0  0  0  0  0  0  0  0  0  0  0  0
    6.0550    0.4630   19.8050 C   0  0  0  0  0  0  0  0  0  0  0  0
    6.3430    0.0670   18.4800 C   0  0  0  0  0  0  0  0  0  0  0  0
    5.0810    1.4460   20.0190 C   0  0  0  0  0  0  0  0  0  0  0  0
    5.7360    0.5960   17.3960 N   0  0  0  0  0  0  0  0  0  0  0  0
    4.4610    2.0060   18.8960 C   0  0  0  0  0  0  0  0  0  0  0  0
    4.8370    1.5830   17.6130 C   0  0  0  0  0  0  0  0  0  0  0  0
  1  2  1  0
  2  3  1  0
  3  4  2  0
  3  6  1  0
  4  5  1  0
  5  9  2  0
  5  8  1  0
  6  7  2  0
  7  9  1  0
  8 10  1  0
 10 11  2  0
 10 12  1  0
 12 13  1  0
 13 14  2  0
 13 15  1  0
 14 16  1  0
 15 17  2  0
 16 18  2  0
 17 18  1  0
M  END
>  <original SMILES>  (519) 
NCc1cccc(NC(=O)Nc2cccnc2)c1

>  <AutoDock Predicted Affinity>  (519) 
-5.55764

>  <ref_pdb>  (519) 
x0434_0

>  <ref_mols>  (519) 
x0434_0

>  <creator>  (519) 
Will Poole

>  <energy minimised>  (519) 
True

$$$$
WPC2854_minimised.pdb
     RDKit          3D

 20 21  0  0  0  0  0  0  0  0999 V2000
   15.7350    0.3180   19.6740 N   0  0  0  0  0  0  0  0  0  0  0  0
   14.7730   -0.5250   20.1400 N   0  0  0  0  0  0  0  0  0  0  0  0
   14.0890   -0.1740   21.1760 C   0  0  0  0  0  0  0  0  0  0  0  0
   12.9850   -1.0260   21.7410 C   0  0  0  0  0  0  0  0  0  0  0  0
   11.8830   -0.2260   22.4230 C   0  0  0  0  0  0  0  0  0  0  0  0
   10.5490   -0.4110   22.0230 C   0  0  0  0  0  0  0  0  0  0  0  0
    9.5130    0.3050   22.6420 C   0  0  0  0  0  0  0  0  0  0  0  0
   12.1720    0.6940   23.4490 C   0  0  0  0  0  0  0  0  0  0  0  0
   11.1330    1.4110   24.0670 C   0  0  0  0  0  0  0  0  0  0  0  0
    8.1800    0.1630   22.2060 N   0  0  0  0  0  0  0  0  0  0  0  0
    9.8040    1.2090   23.6710 C   0  0  0  0  0  0  0  0  0  0  0  0
    7.7590    0.3330   20.9170 C   0  0  0  0  0  0  0  0  0  0  0  0
    8.5040    0.5050   19.9730 O   0  0  0  0  0  0  0  0  0  0  0  0
    6.3970    0.3260   20.7870 N   0  0  0  0  0  0  0  0  0  0  0  0
    5.7000    0.7680   19.6380 C   0  0  0  0  0  0  0  0  0  0  0  0
    6.0780    0.3790   18.3330 C   0  0  0  0  0  0  0  0  0  0  0  0
    4.6860    1.7190   19.7970 C   0  0  0  0  0  0  0  0  0  0  0  0
    5.5140    0.8830   17.2160 N   0  0  0  0  0  0  0  0  0  0  0  0
    4.1200    2.2640   18.6390 C   0  0  0  0  0  0  0  0  0  0  0  0
    4.5820    1.8490   17.3820 C   0  0  0  0  0  0  0  0  0  0  0  0
  1  2  1  0
  2  3  2  0
  3  4  1  0
  4  5  1  0
  5  8  2  0
  5  6  1  0
  6  7  2  0
  7 10  1  0
  7 11  1  0
  8  9  1  0
  9 11  2  0
 10 12  1  0
 12 13  2  0
 12 14  1  0
 14 15  1  0
 15 16  2  0
 15 17  1  0
 16 18  1  0
 17 19  2  0
 18 20  2  0
 19 20  1  0
M  END
>  <original SMILES>  (520) 
NN=CCc1cccc(NC(=O)Nc2cccnc2)c1

>  <AutoDock Predicted Affinity>  (520) 
-5.59204

>  <ref_pdb>  (520) 
x0434_0

>  <ref_mols>  (520) 
x0434_0

>  <creator>  (520) 
Will Poole

>  <energy minimised>  (520) 
True

$$$$
WPC2853_minimised.pdb
     RDKit          3D

 19 20  0  0  0  0  0  0  0  0999 V2000
   14.2930   -1.2140   24.1160 N   0  0  0  0  0  0  0  0  0  0  0  0
   13.8770   -1.6240   22.7910 O   0  0  0  0  0  0  0  0  0  0  0  0
   13.4540   -0.5230   21.9600 C   0  0  0  0  0  0  0  0  0  0  0  0
   12.1930    0.1260   22.5140 C   0  0  0  0  0  0  0  0  0  0  0  0
   10.9160   -0.3250   22.1300 C   0  0  0  0  0  0  0  0  0  0  0  0
    9.7650    0.2920   22.6500 C   0  0  0  0  0  0  0  0  0  0  0  0
   12.3040    1.2120   23.3990 C   0  0  0  0  0  0  0  0  0  0  0  0
   11.1550    1.8280   23.9160 C   0  0  0  0  0  0  0  0  0  0  0  0
    8.4740   -0.0870   22.2290 N   0  0  0  0  0  0  0  0  0  0  0  0
    9.8860    1.3600   23.5500 C   0  0  0  0  0  0  0  0  0  0  0  0
    8.0220    0.0290   20.9440 C   0  0  0  0  0  0  0  0  0  0  0  0
    8.7440    0.2110   19.9850 O   0  0  0  0  0  0  0  0  0  0  0  0
    6.6580   -0.0070   20.8400 N   0  0  0  0  0  0  0  0  0  0  0  0
    5.9390    0.4800   19.7220 C   0  0  0  0  0  0  0  0  0  0  0  0
    6.2710    0.1150   18.3990 C   0  0  0  0  0  0  0  0  0  0  0  0
    4.9600    1.4590   19.9300 C   0  0  0  0  0  0  0  0  0  0  0  0
    5.7000    0.6730   17.3100 N   0  0  0  0  0  0  0  0  0  0  0  0
    4.3760    2.0470   18.8010 C   0  0  0  0  0  0  0  0  0  0  0  0
    4.7930    1.6540   17.5220 C   0  0  0  0  0  0  0  0  0  0  0  0
  1  2  1  0
  2  3  1  0
  3  4  1  0
  4  7  2  0
  4  5  1  0
  5  6  2  0
  6  9  1  0
  6 10  1  0
  7  8  1  0
  8 10  2  0
  9 11  1  0
 11 12  2  0
 11 13  1  0
 13 14  1  0
 14 15  2  0
 14 16  1  0
 15 17  1  0
 16 18  2  0
 17 19  2  0
 18 19  1  0
M  END
>  <original SMILES>  (521) 
NOCc1cccc(NC(=O)Nc2cccnc2)c1

>  <AutoDock Predicted Affinity>  (521) 
-5.408155

>  <ref_pdb>  (521) 
x0434_0

>  <ref_mols>  (521) 
x0434_0

>  <creator>  (521) 
Will Poole

>  <energy minimised>  (521) 
True

$$$$
WPC2816_minimised.pdb
     RDKit          3D

 18 19  0  0  0  0  0  0  0  0999 V2000
   13.8740   -0.9710   20.5200 N   0  0  0  0  0  0  0  0  0  0  0  0
   13.5710   -1.1120   21.9230 O   0  0  0  0  0  0  0  0  0  0  0  0
   12.5480   -0.2940   22.3360 C   0  0  0  0  0  0  0  0  0  0  0  0
   11.2130   -0.6380   22.0670 C   0  0  0  0  0  0  0  0  0  0  0  0
   10.1770    0.2130   22.4830 C   0  0  0  0  0  0  0  0  0  0  0  0
   12.8490    0.8930   23.0190 C   0  0  0  0  0  0  0  0  0  0  0  0
   11.8120    1.7480   23.4260 C   0  0  0  0  0  0  0  0  0  0  0  0
    8.8290   -0.0710   22.1800 N   0  0  0  0  0  0  0  0  0  0  0  0
   10.4780    1.4010   23.1640 C   0  0  0  0  0  0  0  0  0  0  0  0
    8.2930   -0.0100   20.9230 C   0  0  0  0  0  0  0  0  0  0  0  0
    8.9600    0.0590   19.9110 O   0  0  0  0  0  0  0  0  0  0  0  0
    6.9250    0.0370   20.9050 N   0  0  0  0  0  0  0  0  0  0  0  0
    6.1500    0.4890   19.8060 C   0  0  0  0  0  0  0  0  0  0  0  0
    6.4060    0.0810   18.4770 C   0  0  0  0  0  0  0  0  0  0  0  0
    5.1730    1.4650   20.0330 C   0  0  0  0  0  0  0  0  0  0  0  0
    5.7670    0.5960   17.4050 N   0  0  0  0  0  0  0  0  0  0  0  0
    4.5180    2.0090   18.9220 C   0  0  0  0  0  0  0  0  0  0  0  0
    4.8660    1.5770   17.6340 C   0  0  0  0  0  0  0  0  0  0  0  0
  1  2  1  0
  2  3  1  0
  3  4  2  0
  3  6  1  0
  4  5  1  0
  5  9  2  0
  5  8  1  0
  6  7  2  0
  7  9  1  0
  8 10  1  0
 10 11  2  0
 10 12  1  0
 12 13  1  0
 13 14  2  0
 13 15  1  0
 14 16  1  0
 15 17  2  0
 16 18  2  0
 17 18  1  0
M  END
>  <original SMILES>  (522) 
NOc1cccc(NC(=O)Nc2cccnc2)c1

>  <AutoDock Predicted Affinity>  (522) 
-5.781145

>  <ref_pdb>  (522) 
x0434_0

>  <ref_mols>  (522) 
x0434_0

>  <creator>  (522) 
Will Poole

>  <energy minimised>  (522) 
True

$$$$
WPC2903_minimised.pdb
     RDKit          3D

 17 18  0  0  0  0  0  0  0  0999 V2000
   13.3110   -0.6050   21.3760 N   0  0  0  0  0  0  0  0  0  0  0  0
   12.2940   -0.0530   22.1190 C   0  0  0  0  0  0  0  0  0  0  0  0
   10.9760   -0.4510   21.8810 C   0  0  0  0  0  0  0  0  0  0  0  0
    9.9140    0.1900   22.5320 C   0  0  0  0  0  0  0  0  0  0  0  0
   12.5620    0.9660   23.0410 C   0  0  0  0  0  0  0  0  0  0  0  0
   11.5030    1.5900   23.7200 C   0  0  0  0  0  0  0  0  0  0  0  0
    8.5770   -0.0880   22.1790 N   0  0  0  0  0  0  0  0  0  0  0  0
   10.1790    1.1990   23.4680 C   0  0  0  0  0  0  0  0  0  0  0  0
    8.0870   -0.0300   20.9020 C   0  0  0  0  0  0  0  0  0  0  0  0
    8.7790    0.0210   19.9030 O   0  0  0  0  0  0  0  0  0  0  0  0
    6.7200    0.0340   20.8470 N   0  0  0  0  0  0  0  0  0  0  0  0
    5.9820    0.5120   19.7360 C   0  0  0  0  0  0  0  0  0  0  0  0
    6.2690    0.1210   18.4090 C   0  0  0  0  0  0  0  0  0  0  0  0
    5.0140    1.5000   19.9530 C   0  0  0  0  0  0  0  0  0  0  0  0
    5.6740    0.6670   17.3280 N   0  0  0  0  0  0  0  0  0  0  0  0
    4.4020    2.0740   18.8320 C   0  0  0  0  0  0  0  0  0  0  0  0
    4.7830    1.6610   17.5480 C   0  0  0  0  0  0  0  0  0  0  0  0
  1  2  1  0
  2  3  2  0
  2  5  1  0
  3  4  1  0
  4  8  2  0
  4  7  1  0
  5  6  2  0
  6  8  1  0
  7  9  1  0
  9 10  2  0
  9 11  1  0
 11 12  1  0
 12 13  2  0
 12 14  1  0
 13 15  1  0
 14 16  2  0
 15 17  2  0
 16 17  1  0
M  END
>  <original SMILES>  (523) 
Nc1cccc(NC(=O)Nc2cccnc2)c1

>  <AutoDock Predicted Affinity>  (523) 
-5.79057

>  <ref_pdb>  (523) 
x0434_0

>  <ref_mols>  (523) 
x0434_0

>  <creator>  (523) 
Will Poole

>  <energy minimised>  (523) 
True

$$$$
WPC2919_minimised.pdb
     RDKit          3D

 17 18  0  0  0  0  0  0  0  0999 V2000
   13.6120   -1.1790   21.3730 Br  0  0  0  0  0  0  0  0  0  0  0  0
   12.2300   -0.1820   22.2200 C   0  0  0  0  0  0  0  0  0  0  0  0
   10.8890   -0.5010   21.9600 C   0  0  0  0  0  0  0  0  0  0  0  0
    9.8620    0.2430   22.5630 C   0  0  0  0  0  0  0  0  0  0  0  0
   12.5510    0.8820   23.0770 C   0  0  0  0  0  0  0  0  0  0  0  0
   11.5230    1.6230   23.6810 C   0  0  0  0  0  0  0  0  0  0  0  0
    8.5110    0.0070   22.2280 N   0  0  0  0  0  0  0  0  0  0  0  0
   10.1800    1.2960   23.4330 C   0  0  0  0  0  0  0  0  0  0  0  0
    8.0130    0.1040   20.9580 C   0  0  0  0  0  0  0  0  0  0  0  0
    8.7120    0.2280   19.9740 O   0  0  0  0  0  0  0  0  0  0  0  0
    6.6460    0.1090   20.8890 N   0  0  0  0  0  0  0  0  0  0  0  0
    5.9130    0.5570   19.7620 C   0  0  0  0  0  0  0  0  0  0  0  0
    6.2340    0.1550   18.4450 C   0  0  0  0  0  0  0  0  0  0  0  0
    4.9310    1.5370   19.9490 C   0  0  0  0  0  0  0  0  0  0  0  0
    5.6600    0.6860   17.3450 N   0  0  0  0  0  0  0  0  0  0  0  0
    4.3400    2.0940   18.8080 C   0  0  0  0  0  0  0  0  0  0  0  0
    4.7550    1.6720   17.5370 C   0  0  0  0  0  0  0  0  0  0  0  0
  1  2  1  0
  2  3  2  0
  2  5  1  0
  3  4  1  0
  4  8  2  0
  4  7  1  0
  5  6  2  0
  6  8  1  0
  7  9  1  0
  9 10  2  0
  9 11  1  0
 11 12  1  0
 12 13  2  0
 12 14  1  0
 13 15  1  0
 14 16  2  0
 15 17  2  0
 16 17  1  0
M  END
>  <original SMILES>  (524) 
O=C(Nc1cccnc1)Nc1cccc(Br)c1

>  <AutoDock Predicted Affinity>  (524) 
-5.79541

>  <ref_pdb>  (524) 
x0434_0

>  <ref_mols>  (524) 
x0434_0

>  <creator>  (524) 
Will Poole

>  <energy minimised>  (524) 
True

$$$$
WPC2842_minimised.pdb
     RDKit          3D

 19 20  0  0  0  0  0  0  0  0999 V2000
   14.1230   -1.4230   22.2450 F   0  0  0  0  0  0  0  0  0  0  0  0
   13.4660   -0.5390   21.4790 C   0  0  0  0  0  0  0  0  0  0  0  0
   13.1350   -1.2120   20.3590 F   0  0  0  0  0  0  0  0  0  0  0  0
   12.2750    0.0600   22.2140 C   0  0  0  0  0  0  0  0  0  0  0  0
   10.9580   -0.3550   21.9340 C   0  0  0  0  0  0  0  0  0  0  0  0
    9.8680    0.2380   22.5920 C   0  0  0  0  0  0  0  0  0  0  0  0
   12.4850    1.0730   23.1690 C   0  0  0  0  0  0  0  0  0  0  0  0
   11.3950    1.6570   23.8340 C   0  0  0  0  0  0  0  0  0  0  0  0
    8.5430   -0.0760   22.2210 N   0  0  0  0  0  0  0  0  0  0  0  0
   10.0880    1.2340   23.5530 C   0  0  0  0  0  0  0  0  0  0  0  0
    8.0530    0.0770   20.9520 C   0  0  0  0  0  0  0  0  0  0  0  0
    8.7530    0.3000   19.9850 O   0  0  0  0  0  0  0  0  0  0  0  0
    6.6880    0.0230   20.8680 N   0  0  0  0  0  0  0  0  0  0  0  0
    5.9500    0.4890   19.7530 C   0  0  0  0  0  0  0  0  0  0  0  0
    6.2720    0.1110   18.4310 C   0  0  0  0  0  0  0  0  0  0  0  0
    4.9670    1.4660   19.9570 C   0  0  0  0  0  0  0  0  0  0  0  0
    5.6860    0.6490   17.3410 N   0  0  0  0  0  0  0  0  0  0  0  0
    4.3730    2.0400   18.8270 C   0  0  0  0  0  0  0  0  0  0  0  0
    4.7790    1.6310   17.5480 C   0  0  0  0  0  0  0  0  0  0  0  0
  1  2  1  0
  2  4  1  0
  2  3  1  0
  4  5  2  0
  4  7  1  0
  5  6  1  0
  6 10  2  0
  6  9  1  0
  7  8  2  0
  8 10  1  0
  9 11  1  0
 11 12  2  0
 11 13  1  0
 13 14  1  0
 14 15  2  0
 14 16  1  0
 15 17  1  0
 16 18  2  0
 17 19  2  0
 18 19  1  0
M  END
>  <original SMILES>  (525) 
O=C(Nc1cccnc1)Nc1cccc(C(F)F)c1

>  <AutoDock Predicted Affinity>  (525) 
-6.404875

>  <ref_pdb>  (525) 
x0434_0

>  <ref_mols>  (525) 
x0434_0

>  <creator>  (525) 
Will Poole

>  <energy minimised>  (525) 
True

$$$$
WPC2839_minimised.pdb
     RDKit          3D

 21 22  0  0  1  0  0  0  0  0999 V2000
   14.1550   -0.9460   20.8320 O   0  0  0  0  0  0  0  0  0  0  0  0
   13.6070   -1.2810   22.0990 C   0  0  0  0  0  0  0  0  0  0  0  0
   12.1310   -0.8550   22.1790 C   0  0  0  0  0  0  0  0  0  0  0  0
   11.3990   -1.5590   23.3410 C   0  0  2  0  0  0  0  0  0  0  0  0
   11.0510   -2.8750   22.9390 O   0  0  0  0  0  0  0  0  0  0  0  0
   10.1490   -0.8190   23.7790 C   0  0  0  0  0  0  0  0  0  0  0  0
    9.0890   -0.6520   22.8760 C   0  0  0  0  0  0  0  0  0  0  0  0
    7.9300    0.0350   23.2630 C   0  0  0  0  0  0  0  0  0  0  0  0
   10.0360   -0.3020   25.0840 C   0  0  0  0  0  0  0  0  0  0  0  0
    8.8650    0.3620   25.4810 C   0  0  0  0  0  0  0  0  0  0  0  0
    6.8590    0.2100   22.3680 N   0  0  0  0  0  0  0  0  0  0  0  0
    7.8120    0.5300   24.5700 C   0  0  0  0  0  0  0  0  0  0  0  0
    6.9160    0.4720   21.0270 C   0  0  0  0  0  0  0  0  0  0  0  0
    7.9280    0.5610   20.3550 O   0  0  0  0  0  0  0  0  0  0  0  0
    5.6530    0.6270   20.5320 N   0  0  0  0  0  0  0  0  0  0  0  0
    5.2970    1.1180   19.2600 C   0  0  0  0  0  0  0  0  0  0  0  0
    5.9840    0.7560   18.0810 C   0  0  0  0  0  0  0  0  0  0  0  0
    4.2680    2.0620   19.1910 C   0  0  0  0  0  0  0  0  0  0  0  0
    5.7170    1.3030   16.8760 N   0  0  0  0  0  0  0  0  0  0  0  0
    3.9980    2.6360   17.9470 C   0  0  0  0  0  0  0  0  0  0  0  0
    4.7680    2.2690   16.8390 C   0  0  0  0  0  0  0  0  0  0  0  0
  1  2  1  0
  2  3  1  0
  3  4  1  0
  4  5  1  6
  4  6  1  0
  6  9  2  0
  6  7  1  0
  7  8  2  0
  8 11  1  0
  8 12  1  0
  9 10  1  0
 10 12  2  0
 11 13  1  0
 13 14  2  0
 13 15  1  0
 15 16  1  0
 16 17  2  0
 16 18  1  0
 17 19  1  0
 18 20  2  0
 19 21  2  0
 20 21  1  0
M  END
>  <original SMILES>  (526) 
O=C(Nc1cccnc1)Nc1cccc(C(O)CCO)c1

>  <AutoDock Predicted Affinity>  (526) 
-5.266793

>  <ref_pdb>  (526) 
x0434_0

>  <ref_mols>  (526) 
x0434_0

>  <creator>  (526) 
Will Poole

>  <energy minimised>  (526) 
True

$$$$
WPC2889_minimised.pdb
     RDKit          3D

 20 21  0  0  1  0  0  0  0  0999 V2000
   14.4980   -0.6520   20.1400 O   0  0  0  0  0  0  0  0  0  0  0  0
   13.1840   -0.8020   20.6800 C   0  0  0  0  0  0  0  0  0  0  0  0
   13.1900   -0.8720   22.2180 C   0  0  2  0  0  0  0  0  0  0  0  0
   13.3350   -2.2260   22.6190 O   0  0  0  0  0  0  0  0  0  0  0  0
   11.9170   -0.3000   22.8260 C   0  0  0  0  0  0  0  0  0  0  0  0
   10.6530   -0.6300   22.3000 C   0  0  0  0  0  0  0  0  0  0  0  0
    9.4910   -0.0530   22.8350 C   0  0  0  0  0  0  0  0  0  0  0  0
   11.9960    0.6100   23.8980 C   0  0  0  0  0  0  0  0  0  0  0  0
   10.8290    1.1640   24.4470 C   0  0  0  0  0  0  0  0  0  0  0  0
    8.2310   -0.2800   22.2530 N   0  0  0  0  0  0  0  0  0  0  0  0
    9.5770    0.8280   23.9190 C   0  0  0  0  0  0  0  0  0  0  0  0
    7.9110    0.0060   20.9560 C   0  0  0  0  0  0  0  0  0  0  0  0
    8.7160    0.2710   20.0840 O   0  0  0  0  0  0  0  0  0  0  0  0
    6.5590    0.0160   20.7550 N   0  0  0  0  0  0  0  0  0  0  0  0
    5.9070    0.5530   19.6230 C   0  0  0  0  0  0  0  0  0  0  0  0
    6.2930    0.2240   18.3070 C   0  0  0  0  0  0  0  0  0  0  0  0
    4.9070    1.5130   19.8190 C   0  0  0  0  0  0  0  0  0  0  0  0
    5.7400    0.7860   17.2120 N   0  0  0  0  0  0  0  0  0  0  0  0
    4.3500    2.1150   18.6840 C   0  0  0  0  0  0  0  0  0  0  0  0
    4.8090    1.7460   17.4120 C   0  0  0  0  0  0  0  0  0  0  0  0
  1  2  1  0
  2  3  1  0
  3  4  1  6
  3  5  1  0
  5  8  2  0
  5  6  1  0
  6  7  2  0
  7 10  1  0
  7 11  1  0
  8  9  1  0
  9 11  2  0
 10 12  1  0
 12 13  2  0
 12 14  1  0
 14 15  1  0
 15 16  2  0
 15 17  1  0
 16 18  1  0
 17 19  2  0
 18 20  2  0
 19 20  1  0
M  END
>  <original SMILES>  (527) 
O=C(Nc1cccnc1)Nc1cccc(C(O)CO)c1

>  <AutoDock Predicted Affinity>  (527) 
-5.38004

>  <ref_pdb>  (527) 
x0434_0

>  <ref_mols>  (527) 
x0434_0

>  <creator>  (527) 
Will Poole

>  <energy minimised>  (527) 
True

$$$$
WPC2742_minimised.pdb
     RDKit          3D

 22 24  0  0  1  0  0  0  0  0999 V2000
   14.0330   -1.1720   20.5540 O   0  0  0  0  0  0  0  0  0  0  0  0
   13.8860   -0.2840   21.3730 C   0  0  0  0  0  0  0  0  0  0  0  0
   14.6310    0.9730   21.4380 C   0  0  0  0  0  0  0  0  0  0  0  0
   14.2540    1.6520   22.5200 C   0  0  0  0  0  0  0  0  0  0  0  0
   13.1790    0.9120   23.2640 C   0  0  1  0  0  0  0  0  0  0  0  0
   11.8300    1.6250   23.2430 C   0  0  0  0  0  0  0  0  0  0  0  0
   10.6480    0.8990   23.0020 C   0  0  0  0  0  0  0  0  0  0  0  0
    9.4130    1.5550   22.9360 C   0  0  0  0  0  0  0  0  0  0  0  0
   11.7460    3.0210   23.4320 C   0  0  0  0  0  0  0  0  0  0  0  0
   10.5060    3.6750   23.3780 C   0  0  0  0  0  0  0  0  0  0  0  0
   13.1100   -0.3210   22.4940 O   0  0  0  0  0  0  0  0  0  0  0  0
    8.2560    0.8510   22.5510 N   0  0  0  0  0  0  0  0  0  0  0  0
    9.3380    2.9410   23.1290 C   0  0  0  0  0  0  0  0  0  0  0  0
    7.9560    0.5880   21.2450 C   0  0  0  0  0  0  0  0  0  0  0  0
    8.7570    0.6690   20.3350 O   0  0  0  0  0  0  0  0  0  0  0  0
    6.6290    0.3190   21.0490 N   0  0  0  0  0  0  0  0  0  0  0  0
    5.9460    0.6460   19.8560 C   0  0  0  0  0  0  0  0  0  0  0  0
    6.3660    0.1940   18.5850 C   0  0  0  0  0  0  0  0  0  0  0  0
    4.9120    1.5870   19.9360 C   0  0  0  0  0  0  0  0  0  0  0  0
    5.8200    0.6310   17.4280 N   0  0  0  0  0  0  0  0  0  0  0  0
    4.3670    2.0600   18.7390 C   0  0  0  0  0  0  0  0  0  0  0  0
    4.8650    1.5850   17.5190 C   0  0  0  0  0  0  0  0  0  0  0  0
  1  2  2  0
  2 11  1  0
  2  3  1  0
  3  4  2  0
  4  5  1  0
  5  6  1  6
  5 11  1  0
  6  9  1  0
  6  7  2  0
  7  8  1  0
  8 12  1  0
  8 13  2  0
  9 10  2  0
 10 13  1  0
 12 14  1  0
 14 15  2  0
 14 16  1  0
 16 17  1  0
 17 18  2  0
 17 19  1  0
 18 20  1  0
 19 21  2  0
 20 22  2  0
 21 22  1  0
M  END
>  <original SMILES>  (528) 
O=C(Nc1cccnc1)Nc1cccc(C2C=CC(=O)O2)c1

>  <AutoDock Predicted Affinity>  (528) 
-6.8042

>  <ref_pdb>  (528) 
x0434_0

>  <ref_mols>  (528) 
x0434_0

>  <creator>  (528) 
Will Poole

>  <energy minimised>  (528) 
True

$$$$
WPC2834_minimised.pdb
     RDKit          3D

 19 21  0  0  0  0  0  0  0  0999 V2000
   13.3570   -1.3010   20.9740 C   0  0  0  0  0  0  0  0  0  0  0  0
   13.2380   -2.0310   22.2850 C   0  0  0  0  0  0  0  0  0  0  0  0
   13.3780   -0.5260   22.2680 C   0  0  0  0  0  0  0  0  0  0  0  0
   12.2470    0.3780   22.6710 C   0  0  0  0  0  0  0  0  0  0  0  0
   10.9070    0.0230   22.4270 C   0  0  0  0  0  0  0  0  0  0  0  0
    9.8630    0.8850   22.7900 C   0  0  0  0  0  0  0  0  0  0  0  0
   12.5240    1.6170   23.2760 C   0  0  0  0  0  0  0  0  0  0  0  0
   11.4790    2.4840   23.6370 C   0  0  0  0  0  0  0  0  0  0  0  0
    8.5300    0.5670   22.4560 N   0  0  0  0  0  0  0  0  0  0  0  0
   10.1470    2.1130   23.4020 C   0  0  0  0  0  0  0  0  0  0  0  0
    8.0770    0.4500   21.1710 C   0  0  0  0  0  0  0  0  0  0  0  0
    8.8070    0.4440   20.2010 O   0  0  0  0  0  0  0  0  0  0  0  0
    6.7140    0.3990   21.0630 N   0  0  0  0  0  0  0  0  0  0  0  0
    5.9960    0.7140   19.8830 C   0  0  0  0  0  0  0  0  0  0  0  0
    6.3610    0.2210   18.6080 C   0  0  0  0  0  0  0  0  0  0  0  0
    4.9710    1.6640   19.9730 C   0  0  0  0  0  0  0  0  0  0  0  0
    5.7870    0.6390   17.4580 N   0  0  0  0  0  0  0  0  0  0  0  0
    4.3870    2.1070   18.7820 C   0  0  0  0  0  0  0  0  0  0  0  0
    4.8480    1.6070   17.5570 C   0  0  0  0  0  0  0  0  0  0  0  0
  1  2  1  0
  1  3  1  0
  2  3  1  0
  3  4  1  0
  4  7  1  0
  4  5  2  0
  5  6  1  0
  6  9  1  0
  6 10  2  0
  7  8  2  0
  8 10  1  0
  9 11  1  0
 11 12  2  0
 11 13  1  0
 13 14  1  0
 14 15  2  0
 14 16  1  0
 15 17  1  0
 16 18  2  0
 17 19  2  0
 18 19  1  0
M  END
>  <original SMILES>  (529) 
O=C(Nc1cccnc1)Nc1cccc(C2CC2)c1

>  <AutoDock Predicted Affinity>  (529) 
-5.769402

>  <ref_pdb>  (529) 
x0434_0

>  <ref_mols>  (529) 
x0434_0

>  <creator>  (529) 
Will Poole

>  <energy minimised>  (529) 
True

$$$$
WPC2798_minimised.pdb
     RDKit          3D

 21 23  0  0  0  0  0  0  0  0999 V2000
   13.7760   -0.7360   20.9450 C   0  0  0  0  0  0  0  0  0  0  0  0
   13.8040   -1.8550   21.9860 C   0  0  0  0  0  0  0  0  0  0  0  0
   12.4860   -1.6630   22.7390 C   0  0  0  0  0  0  0  0  0  0  0  0
   12.4670   -0.1340   22.9450 C   0  0  0  0  0  0  0  0  0  0  0  0
   11.1260    0.5180   23.2320 C   0  0  0  0  0  0  0  0  0  0  0  0
    9.9360    0.0760   22.6310 C   0  0  0  0  0  0  0  0  0  0  0  0
    8.7330    0.7470   22.8820 C   0  0  0  0  0  0  0  0  0  0  0  0
   11.1010    1.6630   24.0450 C   0  0  0  0  0  0  0  0  0  0  0  0
    9.9000    2.3380   24.2910 C   0  0  0  0  0  0  0  0  0  0  0  0
   13.1370    0.4480   21.6910 C   0  0  0  0  0  0  0  0  0  0  0  0
    7.5500    0.3500   22.2370 N   0  0  0  0  0  0  0  0  0  0  0  0
    8.7090    1.8730   23.7140 C   0  0  0  0  0  0  0  0  0  0  0  0
    7.3670    0.3690   20.8860 C   0  0  0  0  0  0  0  0  0  0  0  0
    8.2510    0.5100   20.0610 O   0  0  0  0  0  0  0  0  0  0  0  0
    6.0420    0.2740   20.5660 N   0  0  0  0  0  0  0  0  0  0  0  0
    5.4780    0.7770   19.3770 C   0  0  0  0  0  0  0  0  0  0  0  0
    6.0070    0.4780   18.1040 C   0  0  0  0  0  0  0  0  0  0  0  0
    4.4500    1.7200   19.4870 C   0  0  0  0  0  0  0  0  0  0  0  0
    5.5700    1.0600   16.9680 N   0  0  0  0  0  0  0  0  0  0  0  0
    4.0160    2.3450   18.3150 C   0  0  0  0  0  0  0  0  0  0  0  0
    4.6190    2.0170   17.0950 C   0  0  0  0  0  0  0  0  0  0  0  0
  1  2  1  0
  1 10  1  0
  2  3  1  0
  3  4  1  0
  4 10  1  0
  4  5  1  0
  5  8  1  0
  5  6  2  0
  6  7  1  0
  7 11  1  0
  7 12  2  0
  8  9  2  0
  9 12  1  0
 11 13  1  0
 13 14  2  0
 13 15  1  0
 15 16  1  0
 16 17  2  0
 16 18  1  0
 17 19  1  0
 18 20  2  0
 19 21  2  0
 20 21  1  0
M  END
>  <original SMILES>  (530) 
O=C(Nc1cccnc1)Nc1cccc(C2CCCC2)c1

>  <AutoDock Predicted Affinity>  (530) 
-6.50472

>  <ref_pdb>  (530) 
x0434_0

>  <ref_mols>  (530) 
x0434_0

>  <creator>  (530) 
Will Poole

>  <energy minimised>  (530) 
True

$$$$
WPC2811_minimised.pdb
     RDKit          3D

 21 23  0  0  1  0  0  0  0  0999 V2000
   13.1470   -1.3280   21.6310 C   0  0  0  0  0  0  0  0  0  0  0  0
   13.4540   -0.1450   22.0320 N   0  0  0  0  0  0  0  0  0  0  0  0
   12.7250    0.1420   23.2830 C   0  0  0  0  0  0  0  0  0  0  0  0
   11.6990    1.2610   23.1440 C   0  0  0  0  0  0  0  0  0  0  0  0
   10.3400    0.9650   22.9420 C   0  0  0  0  0  0  0  0  0  0  0  0
    9.3940    1.9850   22.8280 C   0  0  0  0  0  0  0  0  0  0  0  0
   12.0990    2.6070   23.2010 C   0  0  0  0  0  0  0  0  0  0  0  0
   11.1470    3.6370   23.1060 C   0  0  0  0  0  0  0  0  0  0  0  0
   12.0940   -1.1600   23.5850 N   0  0  0  0  0  0  0  0  0  0  0  0
   12.2940   -1.9680   22.6070 C   0  0  0  0  0  0  0  0  0  0  0  0
    8.0750    1.6400   22.4780 N   0  0  0  0  0  0  0  0  0  0  0  0
    9.7880    3.3250   22.9330 C   0  0  0  0  0  0  0  0  0  0  0  0
    7.7360    1.1380   21.2520 C   0  0  0  0  0  0  0  0  0  0  0  0
    8.5450    0.8860   20.3790 O   0  0  0  0  0  0  0  0  0  0  0  0
    6.3890    0.9890   21.0750 N   0  0  0  0  0  0  0  0  0  0  0  0
    5.7360    1.1180   19.8270 C   0  0  0  0  0  0  0  0  0  0  0  0
    6.2160    0.5320   18.6320 C   0  0  0  0  0  0  0  0  0  0  0  0
    4.6650    2.0150   19.7620 C   0  0  0  0  0  0  0  0  0  0  0  0
    5.7150    0.8240   17.4110 N   0  0  0  0  0  0  0  0  0  0  0  0
    4.1630    2.3360   18.4990 C   0  0  0  0  0  0  0  0  0  0  0  0
    4.7430    1.7620   17.3620 C   0  0  0  0  0  0  0  0  0  0  0  0
  1  2  2  0
  1 10  1  0
  2  3  1  0
  3  9  1  0
  3  4  1  0
  4  7  1  0
  4  5  2  0
  5  6  1  0
  6 11  1  0
  6 12  2  0
  7  8  2  0
  8 12  1  0
  9 10  2  0
 11 13  1  0
 13 14  2  0
 13 15  1  0
 15 16  1  0
 16 17  2  0
 16 18  1  0
 17 19  1  0
 18 20  2  0
 19 21  2  0
 20 21  1  0
M  END
>  <original SMILES>  (531) 
O=C(Nc1cccnc1)Nc1cccc(C2N=CC=N2)c1

>  <AutoDock Predicted Affinity>  (531) 
-5.84643

>  <ref_pdb>  (531) 
x0434_0

>  <ref_mols>  (531) 
x0434_0

>  <creator>  (531) 
Will Poole

>  <energy minimised>  (531) 
True

$$$$
WPC2914_minimised.pdb
     RDKit          3D

 21 23  0  0  1  0  0  0  0  0999 V2000
   14.1600   -0.9120   20.3100 N   0  0  0  0  0  0  0  0  0  0  0  0
   13.9940    0.0790   21.1310 N   0  0  0  0  0  0  0  0  0  0  0  0
   13.4910   -0.4880   22.3560 C   0  0  0  0  0  0  0  0  0  0  0  0
   12.1840    0.2030   22.7370 C   0  0  0  0  0  0  0  0  0  0  0  0
   10.9230   -0.2350   22.2790 C   0  0  0  0  0  0  0  0  0  0  0  0
    9.7520    0.4050   22.7210 C   0  0  0  0  0  0  0  0  0  0  0  0
   12.2520    1.3170   23.5920 C   0  0  0  0  0  0  0  0  0  0  0  0
   11.0830    1.9600   24.0250 C   0  0  0  0  0  0  0  0  0  0  0  0
   13.2810   -1.8910   22.0710 N   0  0  0  0  0  0  0  0  0  0  0  0
   13.7300   -2.0810   20.8680 N   0  0  0  0  0  0  0  0  0  0  0  0
    8.4810    0.0100   22.2590 N   0  0  0  0  0  0  0  0  0  0  0  0
    9.8320    1.4930   23.6020 C   0  0  0  0  0  0  0  0  0  0  0  0
    8.0640    0.1230   20.9640 C   0  0  0  0  0  0  0  0  0  0  0  0
    8.8050    0.3320   20.0270 O   0  0  0  0  0  0  0  0  0  0  0  0
    6.7050    0.0480   20.8310 N   0  0  0  0  0  0  0  0  0  0  0  0
    5.9870    0.5200   19.7070 C   0  0  0  0  0  0  0  0  0  0  0  0
    6.3250    0.1520   18.3870 C   0  0  0  0  0  0  0  0  0  0  0  0
    4.9890    1.4820   19.9090 C   0  0  0  0  0  0  0  0  0  0  0  0
    5.7330    0.6820   17.2960 N   0  0  0  0  0  0  0  0  0  0  0  0
    4.3900    2.0480   18.7770 C   0  0  0  0  0  0  0  0  0  0  0  0
    4.8080    1.6470   17.5010 C   0  0  0  0  0  0  0  0  0  0  0  0
  1  2  2  0
  1 10  1  0
  2  3  1  0
  3  9  1  0
  3  4  1  0
  4  7  1  0
  4  5  2  0
  5  6  1  0
  6 11  1  0
  6 12  2  0
  7  8  2  0
  8 12  1  0
  9 10  2  0
 11 13  1  0
 13 14  2  0
 13 15  1  0
 15 16  1  0
 16 17  2  0
 16 18  1  0
 17 19  1  0
 18 20  2  0
 19 21  2  0
 20 21  1  0
M  END
>  <original SMILES>  (532) 
O=C(Nc1cccnc1)Nc1cccc(C2N=NN=N2)c1

>  <AutoDock Predicted Affinity>  (532) 
-6.40078

>  <ref_pdb>  (532) 
x0434_0

>  <ref_mols>  (532) 
x0434_0

>  <creator>  (532) 
Will Poole

>  <energy minimised>  (532) 
True

$$$$
WPC2784_minimised.pdb
     RDKit          3D

 21 23  0  0  0  0  0  0  0  0999 V2000
   13.9940   -0.7400   20.8000 C   0  0  0  0  0  0  0  0  0  0  0  0
   14.9700    0.4350   20.8760 C   0  0  0  0  0  0  0  0  0  0  0  0
   15.1360    0.6390   22.3140 N   0  0  0  0  0  0  0  0  0  0  0  0
   13.9460    0.1310   22.9670 C   0  0  0  0  0  0  0  0  0  0  0  0
   12.7220    1.0510   22.8950 C   0  0  0  0  0  0  0  0  0  0  0  0
   11.4230    0.5010   22.8360 C   0  0  0  0  0  0  0  0  0  0  0  0
   10.2950    1.3350   22.7720 C   0  0  0  0  0  0  0  0  0  0  0  0
   12.8660    2.4540   22.8980 C   0  0  0  0  0  0  0  0  0  0  0  0
   11.7390    3.2880   22.8410 C   0  0  0  0  0  0  0  0  0  0  0  0
   13.8030   -1.0990   22.2060 N   0  0  0  0  0  0  0  0  0  0  0  0
    9.0020    0.7960   22.5750 N   0  0  0  0  0  0  0  0  0  0  0  0
   10.4550    2.7280   22.7770 C   0  0  0  0  0  0  0  0  0  0  0  0
    8.4420    0.6700   21.3320 C   0  0  0  0  0  0  0  0  0  0  0  0
    9.0850    0.8020   20.3140 O   0  0  0  0  0  0  0  0  0  0  0  0
    7.0890    0.4500   21.2980 N   0  0  0  0  0  0  0  0  0  0  0  0
    6.2950    0.6870   20.1440 C   0  0  0  0  0  0  0  0  0  0  0  0
    6.6180    0.1470   18.8760 C   0  0  0  0  0  0  0  0  0  0  0  0
    5.2480    1.6130   20.2330 C   0  0  0  0  0  0  0  0  0  0  0  0
    5.9760    0.4870   17.7350 N   0  0  0  0  0  0  0  0  0  0  0  0
    4.6020    1.9880   19.0490 C   0  0  0  0  0  0  0  0  0  0  0  0
    5.0140    1.4310   17.8290 C   0  0  0  0  0  0  0  0  0  0  0  0
  1  2  1  0
  1 10  1  0
  2  3  1  0
  3  4  1  0
  4 10  1  0
  4  5  1  0
  5  8  1  0
  5  6  2  0
  6  7  1  0
  7 11  1  0
  7 12  2  0
  8  9  2  0
  9 12  1  0
 11 13  1  0
 13 14  2  0
 13 15  1  0
 15 16  1  0
 16 17  2  0
 16 18  1  0
 17 19  1  0
 18 20  2  0
 19 21  2  0
 20 21  1  0
M  END
>  <original SMILES>  (533) 
O=C(Nc1cccnc1)Nc1cccc(C2NCCN2)c1

>  <AutoDock Predicted Affinity>  (533) 
-6.11087

>  <ref_pdb>  (533) 
x0434_0

>  <ref_mols>  (533) 
x0434_0

>  <creator>  (533) 
Will Poole

>  <energy minimised>  (533) 
True

$$$$
WPC2698_minimised.pdb
     RDKit          3D

 21 23  0  0  1  0  0  0  0  0999 V2000
   13.2010   -0.8120   21.3800 C   0  0  0  0  0  0  0  0  0  0  0  0
   12.6650   -1.8120   22.4010 C   0  0  0  0  0  0  0  0  0  0  0  0
   12.4560   -1.0020   23.5680 O   0  0  0  0  0  0  0  0  0  0  0  0
   13.0100    0.3150   23.3970 C   0  0  2  0  0  0  0  0  0  0  0  0
   11.8890    1.3300   23.2150 C   0  0  0  0  0  0  0  0  0  0  0  0
   10.5550    0.9140   23.0480 C   0  0  0  0  0  0  0  0  0  0  0  0
    9.5330    1.8510   22.8760 C   0  0  0  0  0  0  0  0  0  0  0  0
   12.1810    2.7070   23.1990 C   0  0  0  0  0  0  0  0  0  0  0  0
   11.1510    3.6510   23.0500 C   0  0  0  0  0  0  0  0  0  0  0  0
   13.8560    0.1880   22.2160 N   0  0  0  0  0  0  0  0  0  0  0  0
    8.2420    1.3990   22.5470 N   0  0  0  0  0  0  0  0  0  0  0  0
    9.8240    3.2210   22.8940 C   0  0  0  0  0  0  0  0  0  0  0  0
    7.8970    0.9890   21.2890 C   0  0  0  0  0  0  0  0  0  0  0  0
    8.6960    0.8630   20.3800 O   0  0  0  0  0  0  0  0  0  0  0  0
    6.5540    0.7860   21.1280 N   0  0  0  0  0  0  0  0  0  0  0  0
    5.8760    0.9590   19.8980 C   0  0  0  0  0  0  0  0  0  0  0  0
    6.3320    0.4100   18.6770 C   0  0  0  0  0  0  0  0  0  0  0  0
    4.8010    1.8540   19.8820 C   0  0  0  0  0  0  0  0  0  0  0  0
    5.7920    0.7210   17.4770 N   0  0  0  0  0  0  0  0  0  0  0  0
    4.2640    2.2010   18.6400 C   0  0  0  0  0  0  0  0  0  0  0  0
    4.8100    1.6510   17.4750 C   0  0  0  0  0  0  0  0  0  0  0  0
  1  2  1  0
  1 10  1  0
  2  3  1  0
  3  4  1  0
  4 10  1  0
  4  5  1  6
  5  8  1  0
  5  6  2  0
  6  7  1  0
  7 11  1  0
  7 12  2  0
  8  9  2  0
  9 12  1  0
 11 13  1  0
 13 14  2  0
 13 15  1  0
 15 16  1  0
 16 17  2  0
 16 18  1  0
 17 19  1  0
 18 20  2  0
 19 21  2  0
 20 21  1  0
M  END
>  <original SMILES>  (534) 
O=C(Nc1cccnc1)Nc1cccc(C2NCCO2)c1

>  <AutoDock Predicted Affinity>  (534) 
-5.72269

>  <ref_pdb>  (534) 
x0434_0

>  <ref_mols>  (534) 
x0434_0

>  <creator>  (534) 
Will Poole

>  <energy minimised>  (534) 
True

$$$$
WPC2847_minimised.pdb
     RDKit          3D

 21 23  0  0  1  0  0  0  0  0999 V2000
   13.7740    0.2980   21.6140 C   0  0  0  0  0  0  0  0  0  0  0  0
   13.3300   -1.1600   21.6100 C   0  0  0  0  0  0  0  0  0  0  0  0
   12.2650   -1.2870   23.0860 S   0  0  0  0  0  0  0  0  0  0  0  0
   12.6970    0.3930   23.7340 C   0  0  2  0  0  0  0  0  0  0  0  0
   11.6030    1.4240   23.4570 C   0  0  0  0  0  0  0  0  0  0  0  0
   10.2660    1.0060   23.3190 C   0  0  0  0  0  0  0  0  0  0  0  0
    9.2660    1.9180   22.9810 C   0  0  0  0  0  0  0  0  0  0  0  0
   11.9040    2.7940   23.2980 C   0  0  0  0  0  0  0  0  0  0  0  0
   10.8870    3.7200   23.0140 C   0  0  0  0  0  0  0  0  0  0  0  0
   13.9530    0.6700   23.0170 N   0  0  0  0  0  0  0  0  0  0  0  0
    8.0090    1.4300   22.5890 N   0  0  0  0  0  0  0  0  0  0  0  0
    9.5650    3.2800   22.8500 C   0  0  0  0  0  0  0  0  0  0  0  0
    7.7340    1.0600   21.3020 C   0  0  0  0  0  0  0  0  0  0  0  0
    8.5660    1.0120   20.4150 O   0  0  0  0  0  0  0  0  0  0  0  0
    6.4080    0.8050   21.0910 N   0  0  0  0  0  0  0  0  0  0  0  0
    5.7670    0.9990   19.8470 C   0  0  0  0  0  0  0  0  0  0  0  0
    6.2530    0.4520   18.6370 C   0  0  0  0  0  0  0  0  0  0  0  0
    4.7090    1.9130   19.8070 C   0  0  0  0  0  0  0  0  0  0  0  0
    5.7600    0.7880   17.4240 N   0  0  0  0  0  0  0  0  0  0  0  0
    4.2170    2.2800   18.5530 C   0  0  0  0  0  0  0  0  0  0  0  0
    4.7920    1.7330   17.4000 C   0  0  0  0  0  0  0  0  0  0  0  0
  1  2  1  0
  1 10  1  0
  2  3  1  0
  3  4  1  0
  4 10  1  0
  4  5  1  6
  5  8  1  0
  5  6  2  0
  6  7  1  0
  7 11  1  0
  7 12  2  0
  8  9  2  0
  9 12  1  0
 11 13  1  0
 13 14  2  0
 13 15  1  0
 15 16  1  0
 16 17  2  0
 16 18  1  0
 17 19  1  0
 18 20  2  0
 19 21  2  0
 20 21  1  0
M  END
>  <original SMILES>  (535) 
O=C(Nc1cccnc1)Nc1cccc(C2NCCS2)c1

>  <AutoDock Predicted Affinity>  (535) 
-5.75562

>  <ref_pdb>  (535) 
x0434_0

>  <ref_mols>  (535) 
x0434_0

>  <creator>  (535) 
Will Poole

>  <energy minimised>  (535) 
True

$$$$
WPC2741_minimised.pdb
     RDKit          3D

 22 24  0  0  0  0  0  0  0  0999 V2000
   13.6460   -1.9940   20.8220 C   0  0  0  0  0  0  0  0  0  0  0  0
   13.9400   -0.6290   20.2020 C   0  0  0  0  0  0  0  0  0  0  0  0
   13.0680    0.3030   20.8470 O   0  0  0  0  0  0  0  0  0  0  0  0
   13.2380    0.4530   22.2750 C   0  0  0  0  0  0  0  0  0  0  0  0
   11.8790    0.4130   22.9760 C   0  0  0  0  0  0  0  0  0  0  0  0
   10.6840    0.1620   22.2720 C   0  0  0  0  0  0  0  0  0  0  0  0
    9.4500    0.1130   22.9450 C   0  0  0  0  0  0  0  0  0  0  0  0
   11.8240    0.5720   24.3690 C   0  0  0  0  0  0  0  0  0  0  0  0
   10.6010    0.4840   25.0530 C   0  0  0  0  0  0  0  0  0  0  0  0
   14.0430   -0.6340   22.7860 O   0  0  0  0  0  0  0  0  0  0  0  0
   13.5990   -1.9400   22.3560 C   0  0  0  0  0  0  0  0  0  0  0  0
    8.2190   -0.0680   22.2700 N   0  0  0  0  0  0  0  0  0  0  0  0
    9.4160    0.2640   24.3380 C   0  0  0  0  0  0  0  0  0  0  0  0
    7.9100    0.2120   20.9650 C   0  0  0  0  0  0  0  0  0  0  0  0
    8.7000    0.5020   20.0880 O   0  0  0  0  0  0  0  0  0  0  0  0
    6.5610    0.1680   20.7540 N   0  0  0  0  0  0  0  0  0  0  0  0
    5.8960    0.6580   19.6080 C   0  0  0  0  0  0  0  0  0  0  0  0
    6.2850    0.2960   18.3000 C   0  0  0  0  0  0  0  0  0  0  0  0
    4.8780    1.6040   19.7800 C   0  0  0  0  0  0  0  0  0  0  0  0
    5.7160    0.8130   17.1900 N   0  0  0  0  0  0  0  0  0  0  0  0
    4.3080    2.1610   18.6300 C   0  0  0  0  0  0  0  0  0  0  0  0
    4.7700    1.7640   17.3680 C   0  0  0  0  0  0  0  0  0  0  0  0
  1  2  1  0
  1 11  1  0
  2  3  1  0
  3  4  1  0
  4 10  1  0
  4  5  1  0
  5  8  1  0
  5  6  2  0
  6  7  1  0
  7 12  1  0
  7 13  2  0
  8  9  2  0
  9 13  1  0
 10 11  1  0
 12 14  1  0
 14 15  2  0
 14 16  1  0
 16 17  1  0
 17 18  2  0
 17 19  1  0
 18 20  1  0
 19 21  2  0
 20 22  2  0
 21 22  1  0
M  END
>  <original SMILES>  (536) 
O=C(Nc1cccnc1)Nc1cccc(C2OCCCO2)c1

>  <AutoDock Predicted Affinity>  (536) 
-6.434715

>  <ref_pdb>  (536) 
x0434_0

>  <ref_mols>  (536) 
x0434_0

>  <creator>  (536) 
Will Poole

>  <energy minimised>  (536) 
True

$$$$
WPC2912_minimised.pdb
     RDKit          3D

 21 23  0  0  0  0  0  0  0  0999 V2000
   13.5200   -1.8450   22.2650 C   0  0  0  0  0  0  0  0  0  0  0  0
   13.4050   -1.3730   20.8220 C   0  0  0  0  0  0  0  0  0  0  0  0
   12.9420   -0.0310   20.9700 O   0  0  0  0  0  0  0  0  0  0  0  0
   13.1100    0.4020   22.3310 C   0  0  0  0  0  0  0  0  0  0  0  0
   11.7560    0.4080   23.0450 C   0  0  0  0  0  0  0  0  0  0  0  0
   10.5480    0.2480   22.3390 C   0  0  0  0  0  0  0  0  0  0  0  0
    9.3130    0.2210   23.0100 C   0  0  0  0  0  0  0  0  0  0  0  0
   11.7090    0.5220   24.4430 C   0  0  0  0  0  0  0  0  0  0  0  0
   10.4830    0.4770   25.1250 C   0  0  0  0  0  0  0  0  0  0  0  0
   13.9220   -0.6300   22.9040 O   0  0  0  0  0  0  0  0  0  0  0  0
    8.0780    0.0800   22.3310 N   0  0  0  0  0  0  0  0  0  0  0  0
    9.2870    0.3330   24.4080 C   0  0  0  0  0  0  0  0  0  0  0  0
    7.7850    0.3130   21.0110 C   0  0  0  0  0  0  0  0  0  0  0  0
    8.5870    0.5680   20.1350 O   0  0  0  0  0  0  0  0  0  0  0  0
    6.4400    0.2600   20.7790 N   0  0  0  0  0  0  0  0  0  0  0  0
    5.7960    0.7290   19.6130 C   0  0  0  0  0  0  0  0  0  0  0  0
    6.2180    0.3570   18.3180 C   0  0  0  0  0  0  0  0  0  0  0  0
    4.7730    1.6750   19.7510 C   0  0  0  0  0  0  0  0  0  0  0  0
    5.6850    0.8730   17.1890 N   0  0  0  0  0  0  0  0  0  0  0  0
    4.2370    2.2260   18.5830 C   0  0  0  0  0  0  0  0  0  0  0  0
    4.7390    1.8280   17.3370 C   0  0  0  0  0  0  0  0  0  0  0  0
  1  2  1  0
  1 10  1  0
  2  3  1  0
  3  4  1  0
  4 10  1  0
  4  5  1  0
  5  8  1  0
  5  6  2  0
  6  7  1  0
  7 11  1  0
  7 12  2  0
  8  9  2  0
  9 12  1  0
 11 13  1  0
 13 14  2  0
 13 15  1  0
 15 16  1  0
 16 17  2  0
 16 18  1  0
 17 19  1  0
 18 20  2  0
 19 21  2  0
 20 21  1  0
M  END
>  <original SMILES>  (537) 
O=C(Nc1cccnc1)Nc1cccc(C2OCCO2)c1

>  <AutoDock Predicted Affinity>  (537) 
-5.757245

>  <ref_pdb>  (537) 
x0434_0

>  <ref_mols>  (537) 
x0434_0

>  <creator>  (537) 
Will Poole

>  <energy minimised>  (537) 
True

$$$$
WPC2905_minimised.pdb
     RDKit          3D

 18 19  0  0  0  0  0  0  0  0999 V2000
   13.6330   -1.3830   20.9430 S   0  0  0  0  0  0  0  0  0  0  0  0
   13.4540   -0.1120   22.0120 C   0  0  0  0  0  0  0  0  0  0  0  0
   12.1520    0.3360   22.5980 C   0  0  0  0  0  0  0  0  0  0  0  0
   10.9180   -0.1900   22.1650 C   0  0  0  0  0  0  0  0  0  0  0  0
    9.7180    0.2610   22.7460 C   0  0  0  0  0  0  0  0  0  0  0  0
   12.1690    1.3200   23.6000 C   0  0  0  0  0  0  0  0  0  0  0  0
   10.9730    1.7560   24.1890 C   0  0  0  0  0  0  0  0  0  0  0  0
    8.4590   -0.1600   22.2660 N   0  0  0  0  0  0  0  0  0  0  0  0
    9.7500    1.2170   23.7710 C   0  0  0  0  0  0  0  0  0  0  0  0
    8.0330    0.0110   20.9790 C   0  0  0  0  0  0  0  0  0  0  0  0
    8.7690    0.2720   20.0490 O   0  0  0  0  0  0  0  0  0  0  0  0
    6.6730   -0.0630   20.8430 N   0  0  0  0  0  0  0  0  0  0  0  0
    5.9630    0.4440   19.7280 C   0  0  0  0  0  0  0  0  0  0  0  0
    6.3060    0.1000   18.4030 C   0  0  0  0  0  0  0  0  0  0  0  0
    4.9810    1.4190   19.9430 C   0  0  0  0  0  0  0  0  0  0  0  0
    5.7360    0.6670   17.3190 N   0  0  0  0  0  0  0  0  0  0  0  0
    4.4020    2.0210   18.8190 C   0  0  0  0  0  0  0  0  0  0  0  0
    4.8240    1.6410   17.5370 C   0  0  0  0  0  0  0  0  0  0  0  0
  1  2  2  0
  2  3  1  0
  3  4  2  0
  3  6  1  0
  4  5  1  0
  5  9  2  0
  5  8  1  0
  6  7  2  0
  7  9  1  0
  8 10  1  0
 10 11  2  0
 10 12  1  0
 12 13  1  0
 13 14  2  0
 13 15  1  0
 14 16  1  0
 15 17  2  0
 16 18  2  0
 17 18  1  0
M  END
>  <original SMILES>  (538) 
O=C(Nc1cccnc1)Nc1cccc(C=S)c1

>  <AutoDock Predicted Affinity>  (538) 
-5.63929

>  <ref_pdb>  (538) 
x0434_0

>  <ref_mols>  (538) 
x0434_0

>  <creator>  (538) 
Will Poole

>  <energy minimised>  (538) 
True

$$$$
WPC2710_minimised.pdb
     RDKit          3D

 23 24  0  0  1  0  0  0  0  0999 V2000
   16.6420    2.0000   19.8060 O   0  0  0  0  0  0  0  0  0  0  0  0
   15.8650    0.8250   19.9510 C   0  0  0  0  0  0  0  0  0  0  0  0
   14.9140    0.9480   21.1620 C   0  0  0  0  0  0  0  0  0  0  0  0
   14.1790   -0.3660   21.5190 C   0  0  2  0  0  0  0  0  0  0  0  0
   13.9230   -1.1280   20.3430 O   0  0  0  0  0  0  0  0  0  0  0  0
   12.8590   -0.0620   22.2580 C   0  0  0  0  0  0  0  0  0  0  0  0
   12.0390   -1.3120   22.6480 C   0  0  0  0  0  0  0  0  0  0  0  0
   10.7390   -0.8910   23.3080 C   0  0  0  0  0  0  0  0  0  0  0  0
    9.5900   -0.7460   22.5180 C   0  0  0  0  0  0  0  0  0  0  0  0
    8.3950   -0.2740   23.0820 C   0  0  0  0  0  0  0  0  0  0  0  0
   10.6830   -0.5710   24.6760 C   0  0  0  0  0  0  0  0  0  0  0  0
    9.4830   -0.1280   25.2520 C   0  0  0  0  0  0  0  0  0  0  0  0
    7.2370   -0.0740   22.3030 N   0  0  0  0  0  0  0  0  0  0  0  0
    8.3390    0.0200   24.4530 C   0  0  0  0  0  0  0  0  0  0  0  0
    7.1510    0.2830   20.9840 C   0  0  0  0  0  0  0  0  0  0  0  0
    8.0810    0.4050   20.2070 O   0  0  0  0  0  0  0  0  0  0  0  0
    5.8470    0.4860   20.6320 N   0  0  0  0  0  0  0  0  0  0  0  0
    5.3660    0.9990   19.4080 C   0  0  0  0  0  0  0  0  0  0  0  0
    5.9200    0.6380   18.1600 C   0  0  0  0  0  0  0  0  0  0  0  0
    4.3360    1.9450   19.4500 C   0  0  0  0  0  0  0  0  0  0  0  0
    5.5080    1.1630   16.9890 N   0  0  0  0  0  0  0  0  0  0  0  0
    3.9260    2.5090   18.2400 C   0  0  0  0  0  0  0  0  0  0  0  0
    4.5540    2.1220   17.0490 C   0  0  0  0  0  0  0  0  0  0  0  0
  1  2  1  0
  2  3  1  0
  3  4  1  0
  4  5  1  6
  4  6  1  0
  6  7  1  0
  7  8  1  0
  8 11  2  0
  8  9  1  0
  9 10  2  0
 10 13  1  0
 10 14  1  0
 11 12  1  0
 12 14  2  0
 13 15  1  0
 15 16  2  0
 15 17  1  0
 17 18  1  0
 18 19  2  0
 18 20  1  0
 19 21  1  0
 20 22  2  0
 21 23  2  0
 22 23  1  0
M  END
>  <original SMILES>  (539) 
O=C(Nc1cccnc1)Nc1cccc(CCC(O)CCO)c1

>  <AutoDock Predicted Affinity>  (539) 
-6.515075

>  <ref_pdb>  (539) 
x0434_0

>  <ref_mols>  (539) 
x0434_0

>  <creator>  (539) 
Will Poole

>  <energy minimised>  (539) 
True

$$$$
WPC2828_minimised.pdb
     RDKit          3D

 21 22  0  0  0  0  0  0  0  0999 V2000
   14.8440   -0.1040   18.9580 O   0  0  0  0  0  0  0  0  0  0  0  0
   14.9280   -0.0590   20.3750 C   0  0  0  0  0  0  0  0  0  0  0  0
   13.9690   -1.0790   21.0300 C   0  0  0  0  0  0  0  0  0  0  0  0
   13.0430   -0.4660   22.1090 C   0  0  0  0  0  0  0  0  0  0  0  0
   12.0150   -1.5000   22.6230 C   0  0  0  0  0  0  0  0  0  0  0  0
   10.8030   -0.8530   23.2760 C   0  0  0  0  0  0  0  0  0  0  0  0
    9.6570   -0.6190   22.5000 C   0  0  0  0  0  0  0  0  0  0  0  0
    8.5080   -0.0550   23.0780 C   0  0  0  0  0  0  0  0  0  0  0  0
   10.7900   -0.5110   24.6390 C   0  0  0  0  0  0  0  0  0  0  0  0
    9.6410    0.0420   25.2240 C   0  0  0  0  0  0  0  0  0  0  0  0
    7.3330    0.1530   22.3280 N   0  0  0  0  0  0  0  0  0  0  0  0
    8.4980    0.2670   24.4420 C   0  0  0  0  0  0  0  0  0  0  0  0
    7.2170    0.4860   21.0070 C   0  0  0  0  0  0  0  0  0  0  0  0
    8.1350    0.6380   20.2220 O   0  0  0  0  0  0  0  0  0  0  0  0
    5.9040    0.6260   20.6620 N   0  0  0  0  0  0  0  0  0  0  0  0
    5.3980    1.0970   19.4340 C   0  0  0  0  0  0  0  0  0  0  0  0
    5.9290    0.6900   18.1900 C   0  0  0  0  0  0  0  0  0  0  0  0
    4.3730    2.0480   19.4620 C   0  0  0  0  0  0  0  0  0  0  0  0
    5.5050    1.1840   17.0090 N   0  0  0  0  0  0  0  0  0  0  0  0
    3.9480    2.5770   18.2410 C   0  0  0  0  0  0  0  0  0  0  0  0
    4.5560    2.1500   17.0540 C   0  0  0  0  0  0  0  0  0  0  0  0
  1  2  1  0
  2  3  1  0
  3  4  1  0
  4  5  1  0
  5  6  1  0
  6  9  2  0
  6  7  1  0
  7  8  2  0
  8 11  1  0
  8 12  1  0
  9 10  1  0
 10 12  2  0
 11 13  1  0
 13 14  2  0
 13 15  1  0
 15 16  1  0
 16 17  2  0
 16 18  1  0
 17 19  1  0
 18 20  2  0
 19 21  2  0
 20 21  1  0
M  END
>  <original SMILES>  (540) 
O=C(Nc1cccnc1)Nc1cccc(CCCCO)c1

>  <AutoDock Predicted Affinity>  (540) 
-5.50348

>  <ref_pdb>  (540) 
x0434_0

>  <ref_mols>  (540) 
x0434_0

>  <creator>  (540) 
Will Poole

>  <energy minimised>  (540) 
True

$$$$
WPC2805_minimised.pdb
     RDKit          3D

 20 21  0  0  0  0  0  0  0  0999 V2000
   14.6000   -0.4910   20.5050 O   0  0  0  0  0  0  0  0  0  0  0  0
   13.7290   -1.4050   21.1540 C   0  0  0  0  0  0  0  0  0  0  0  0
   12.6560   -0.6790   21.9770 C   0  0  0  0  0  0  0  0  0  0  0  0
   11.7100   -1.6890   22.6600 C   0  0  0  0  0  0  0  0  0  0  0  0
   10.5290   -0.9930   23.3080 C   0  0  0  0  0  0  0  0  0  0  0  0
    9.3970   -0.7270   22.5270 C   0  0  0  0  0  0  0  0  0  0  0  0
    8.2890   -0.0730   23.0840 C   0  0  0  0  0  0  0  0  0  0  0  0
   10.5480   -0.5990   24.6570 C   0  0  0  0  0  0  0  0  0  0  0  0
    9.4340    0.0400   25.2230 C   0  0  0  0  0  0  0  0  0  0  0  0
    7.1420    0.1930   22.3110 N   0  0  0  0  0  0  0  0  0  0  0  0
    8.3020    0.3000   24.4360 C   0  0  0  0  0  0  0  0  0  0  0  0
    7.0830    0.5200   20.9840 C   0  0  0  0  0  0  0  0  0  0  0  0
    8.0340    0.6310   20.2310 O   0  0  0  0  0  0  0  0  0  0  0  0
    5.7860    0.6910   20.5930 N   0  0  0  0  0  0  0  0  0  0  0  0
    5.3350    1.1630   19.3430 C   0  0  0  0  0  0  0  0  0  0  0  0
    5.9330    0.7730   18.1230 C   0  0  0  0  0  0  0  0  0  0  0  0
    4.3040    2.1060   19.3280 C   0  0  0  0  0  0  0  0  0  0  0  0
    5.5720    1.2840   16.9280 N   0  0  0  0  0  0  0  0  0  0  0  0
    3.9410    2.6490   18.0920 C   0  0  0  0  0  0  0  0  0  0  0  0
    4.6210    2.2480   16.9360 C   0  0  0  0  0  0  0  0  0  0  0  0
  1  2  1  0
  2  3  1  0
  3  4  1  0
  4  5  1  0
  5  8  2  0
  5  6  1  0
  6  7  2  0
  7 10  1  0
  7 11  1  0
  8  9  1  0
  9 11  2  0
 10 12  1  0
 12 13  2  0
 12 14  1  0
 14 15  1  0
 15 16  2  0
 15 17  1  0
 16 18  1  0
 17 19  2  0
 18 20  2  0
 19 20  1  0
M  END
>  <original SMILES>  (541) 
O=C(Nc1cccnc1)Nc1cccc(CCCO)c1

>  <AutoDock Predicted Affinity>  (541) 
-5.4051

>  <ref_pdb>  (541) 
x0434_0

>  <ref_mols>  (541) 
x0434_0

>  <creator>  (541) 
Will Poole

>  <energy minimised>  (541) 
True

$$$$
WPC2800_minimised.pdb
     RDKit          3D

 19 20  0  0  0  0  0  0  0  0999 V2000
   14.4270    0.5420   22.4850 O   0  0  0  0  0  0  0  0  0  0  0  0
   13.1170    0.6860   23.0150 C   0  0  0  0  0  0  0  0  0  0  0  0
   12.2930   -0.5850   22.7430 C   0  0  0  0  0  0  0  0  0  0  0  0
   10.9070   -0.4680   23.3530 C   0  0  0  0  0  0  0  0  0  0  0  0
    9.7840   -0.4350   22.5150 C   0  0  0  0  0  0  0  0  0  0  0  0
    8.5030   -0.2260   23.0520 C   0  0  0  0  0  0  0  0  0  0  0  0
   10.7360   -0.3300   24.7420 C   0  0  0  0  0  0  0  0  0  0  0  0
    9.4580   -0.1440   25.2880 C   0  0  0  0  0  0  0  0  0  0  0  0
    7.3590   -0.1230   22.2340 N   0  0  0  0  0  0  0  0  0  0  0  0
    8.3410   -0.0900   24.4400 C   0  0  0  0  0  0  0  0  0  0  0  0
    7.2700    0.2760   20.9280 C   0  0  0  0  0  0  0  0  0  0  0  0
    8.2030    0.5130   20.1800 O   0  0  0  0  0  0  0  0  0  0  0  0
    5.9620    0.3920   20.5540 N   0  0  0  0  0  0  0  0  0  0  0  0
    5.4860    0.9460   19.3480 C   0  0  0  0  0  0  0  0  0  0  0  0
    6.0640    0.6310   18.1000 C   0  0  0  0  0  0  0  0  0  0  0  0
    4.4630    1.8980   19.4070 C   0  0  0  0  0  0  0  0  0  0  0  0
    5.6910    1.2180   16.9440 N   0  0  0  0  0  0  0  0  0  0  0  0
    4.0840    2.5150   18.2120 C   0  0  0  0  0  0  0  0  0  0  0  0
    4.7410    2.1790   17.0220 C   0  0  0  0  0  0  0  0  0  0  0  0
  1  2  1  0
  2  3  1  0
  3  4  1  0
  4  7  2  0
  4  5  1  0
  5  6  2  0
  6  9  1  0
  6 10  1  0
  7  8  1  0
  8 10  2  0
  9 11  1  0
 11 12  2  0
 11 13  1  0
 13 14  1  0
 14 15  2  0
 14 16  1  0
 15 17  1  0
 16 18  2  0
 17 19  2  0
 18 19  1  0
M  END
>  <original SMILES>  (542) 
O=C(Nc1cccnc1)Nc1cccc(CCO)c1

>  <AutoDock Predicted Affinity>  (542) 
-5.47986

>  <ref_pdb>  (542) 
x0434_0

>  <ref_mols>  (542) 
x0434_0

>  <creator>  (542) 
Will Poole

>  <energy minimised>  (542) 
True

$$$$
WPC2829_minimised.pdb
     RDKit          3D

 24 26  0  0  1  0  0  0  0  0999 V2000
   14.8320    0.2810   17.4300 O   0  0  0  0  0  0  0  0  0  0  0  0
   15.4330    0.7110   18.4000 C   0  0  0  0  0  0  0  0  0  0  0  0
   15.7120    2.0440   18.5400 O   0  0  0  0  0  0  0  0  0  0  0  0
   15.7560    2.3850   19.8510 C   0  0  0  0  0  0  0  0  0  0  0  0
   15.5090    1.3500   20.6390 C   0  0  0  0  0  0  0  0  0  0  0  0
   15.4160    0.0910   19.8360 C   0  0  1  0  0  0  0  0  0  0  0  0
   14.2930   -0.8310   20.2110 N   0  0  0  0  0  0  0  0  0  0  0  0
   14.0890   -1.1750   21.6340 C   0  0  0  0  0  0  0  0  0  0  0  0
   12.8890   -0.4830   22.2670 C   0  0  0  0  0  0  0  0  0  0  0  0
   11.5730   -0.8470   21.9140 C   0  0  0  0  0  0  0  0  0  0  0  0
   10.4700   -0.2270   22.5290 C   0  0  0  0  0  0  0  0  0  0  0  0
   13.0820    0.4910   23.2650 C   0  0  0  0  0  0  0  0  0  0  0  0
   11.9790    1.1100   23.8730 C   0  0  0  0  0  0  0  0  0  0  0  0
    9.1490   -0.5240   22.1320 N   0  0  0  0  0  0  0  0  0  0  0  0
   10.6760    0.7520   23.5070 C   0  0  0  0  0  0  0  0  0  0  0  0
    8.4510    0.1930   21.1980 C   0  0  0  0  0  0  0  0  0  0  0  0
    8.9200    1.1310   20.5910 O   0  0  0  0  0  0  0  0  0  0  0  0
    7.1750   -0.2410   20.9630 N   0  0  0  0  0  0  0  0  0  0  0  0
    6.3510    0.2830   19.9340 C   0  0  0  0  0  0  0  0  0  0  0  0
    6.5910   -0.0480   18.5840 C   0  0  0  0  0  0  0  0  0  0  0  0
    5.3840    1.2540   20.2270 C   0  0  0  0  0  0  0  0  0  0  0  0
    5.9170    0.4950   17.5480 N   0  0  0  0  0  0  0  0  0  0  0  0
    4.7060    1.8480   19.1510 C   0  0  0  0  0  0  0  0  0  0  0  0
    5.0070    1.4520   17.8370 C   0  0  0  0  0  0  0  0  0  0  0  0
  1  2  2  0
  2  3  1  0
  2  6  1  0
  3  4  1  0
  4  5  2  0
  5  6  1  0
  6  7  1  1
  7  8  1  0
  8  9  1  0
  9 12  1  0
  9 10  2  0
 10 11  1  0
 11 14  1  0
 11 15  2  0
 12 13  2  0
 13 15  1  0
 14 16  1  0
 16 17  2  0
 16 18  1  0
 18 19  1  0
 19 20  2  0
 19 21  1  0
 20 22  1  0
 21 23  2  0
 22 24  2  0
 23 24  1  0
M  END
>  <original SMILES>  (543) 
O=C(Nc1cccnc1)Nc1cccc(CNC2C=COC2=O)c1

>  <AutoDock Predicted Affinity>  (543) 
-6.46572

>  <ref_pdb>  (543) 
x0434_0

>  <ref_mols>  (543) 
x0434_0

>  <creator>  (543) 
Will Poole

>  <energy minimised>  (543) 
True

$$$$
WPC2865_minimised.pdb
     RDKit          3D

 21 23  0  0  0  0  0  0  0  0999 V2000
   16.3640    0.9920   19.7830 C   0  0  0  0  0  0  0  0  0  0  0  0
   15.1420    1.1880   18.9540 C   0  0  0  0  0  0  0  0  0  0  0  0
   15.1640    0.1080   20.0100 C   0  0  0  0  0  0  0  0  0  0  0  0
   14.4230    0.2900   21.2380 N   0  0  0  0  0  0  0  0  0  0  0  0
   13.3820   -0.7140   21.5340 C   0  0  0  0  0  0  0  0  0  0  0  0
   12.2340   -0.1610   22.3800 C   0  0  0  0  0  0  0  0  0  0  0  0
   10.8930   -0.4150   22.0200 C   0  0  0  0  0  0  0  0  0  0  0  0
    9.8290    0.1210   22.7690 C   0  0  0  0  0  0  0  0  0  0  0  0
   12.4900    0.6400   23.5100 C   0  0  0  0  0  0  0  0  0  0  0  0
   11.4240    1.1810   24.2490 C   0  0  0  0  0  0  0  0  0  0  0  0
    8.4850   -0.0720   22.3770 N   0  0  0  0  0  0  0  0  0  0  0  0
   10.0980    0.9100   23.8910 C   0  0  0  0  0  0  0  0  0  0  0  0
    7.9490    0.3630   21.1970 C   0  0  0  0  0  0  0  0  0  0  0  0
    8.5950    0.8990   20.3240 O   0  0  0  0  0  0  0  0  0  0  0  0
    6.6040    0.1470   21.0530 N   0  0  0  0  0  0  0  0  0  0  0  0
    5.8640    0.5650   19.9170 C   0  0  0  0  0  0  0  0  0  0  0  0
    6.2370    0.1710   18.6120 C   0  0  0  0  0  0  0  0  0  0  0  0
    4.8300    1.4960   20.0730 C   0  0  0  0  0  0  0  0  0  0  0  0
    5.6340    0.6240   17.4920 N   0  0  0  0  0  0  0  0  0  0  0  0
    4.2320    2.0040   18.9110 C   0  0  0  0  0  0  0  0  0  0  0  0
    4.6710    1.5600   17.6540 C   0  0  0  0  0  0  0  0  0  0  0  0
  1  2  1  0
  1  3  1  0
  2  3  1  0
  3  4  1  0
  4  5  1  0
  5  6  1  0
  6  9  1  0
  6  7  2  0
  7  8  1  0
  8 11  1  0
  8 12  2  0
  9 10  2  0
 10 12  1  0
 11 13  1  0
 13 14  2  0
 13 15  1  0
 15 16  1  0
 16 17  2  0
 16 18  1  0
 17 19  1  0
 18 20  2  0
 19 21  2  0
 20 21  1  0
M  END
>  <original SMILES>  (544) 
O=C(Nc1cccnc1)Nc1cccc(CNC2CC2)c1

>  <AutoDock Predicted Affinity>  (544) 
-5.413955

>  <ref_pdb>  (544) 
x0434_0

>  <ref_mols>  (544) 
x0434_0

>  <creator>  (544) 
Will Poole

>  <energy minimised>  (544) 
True

$$$$
WPC2692_minimised.pdb
     RDKit          3D

 21 22  0  0  0  0  0  0  0  0999 V2000
   15.2840    1.3980   18.5550 O   0  0  0  0  0  0  0  0  0  0  0  0
   15.5880    0.7710   19.8000 C   0  0  0  0  0  0  0  0  0  0  0  0
   14.5780   -0.3460   20.1590 C   0  0  0  0  0  0  0  0  0  0  0  0
   13.9530   -0.1380   21.4820 N   0  0  0  0  0  0  0  0  0  0  0  0
   12.9030   -1.1190   21.8040 C   0  0  0  0  0  0  0  0  0  0  0  0
   11.7550   -0.5160   22.6110 C   0  0  0  0  0  0  0  0  0  0  0  0
   10.4320   -0.6220   22.1370 C   0  0  0  0  0  0  0  0  0  0  0  0
    9.3620   -0.0760   22.8670 C   0  0  0  0  0  0  0  0  0  0  0  0
   11.9880    0.1650   23.8220 C   0  0  0  0  0  0  0  0  0  0  0  0
   10.9120    0.6820   24.5640 C   0  0  0  0  0  0  0  0  0  0  0  0
    8.0390   -0.1250   22.3800 N   0  0  0  0  0  0  0  0  0  0  0  0
    9.6010    0.5560   24.0910 C   0  0  0  0  0  0  0  0  0  0  0  0
    7.6360    0.3100   21.1480 C   0  0  0  0  0  0  0  0  0  0  0  0
    8.3860    0.7150   20.2850 O   0  0  0  0  0  0  0  0  0  0  0  0
    6.2850    0.2450   20.9560 N   0  0  0  0  0  0  0  0  0  0  0  0
    5.6300    0.7120   19.7920 C   0  0  0  0  0  0  0  0  0  0  0  0
    6.0480    0.3120   18.5030 C   0  0  0  0  0  0  0  0  0  0  0  0
    4.6340    1.6870   19.9110 C   0  0  0  0  0  0  0  0  0  0  0  0
    5.5300    0.8100   17.3630 N   0  0  0  0  0  0  0  0  0  0  0  0
    4.1200    2.2340   18.7290 C   0  0  0  0  0  0  0  0  0  0  0  0
    4.6040    1.7890   17.4900 C   0  0  0  0  0  0  0  0  0  0  0  0
  1  2  1  0
  2  3  1  0
  3  4  1  0
  4  5  1  0
  5  6  1  0
  6  9  2  0
  6  7  1  0
  7  8  2  0
  8 11  1  0
  8 12  1  0
  9 10  1  0
 10 12  2  0
 11 13  1  0
 13 14  2  0
 13 15  1  0
 15 16  1  0
 16 17  2  0
 16 18  1  0
 17 19  1  0
 18 20  2  0
 19 21  2  0
 20 21  1  0
M  END
>  <original SMILES>  (545) 
O=C(Nc1cccnc1)Nc1cccc(CNCCO)c1

>  <AutoDock Predicted Affinity>  (545) 
-5.16108

>  <ref_pdb>  (545) 
x0434_0

>  <ref_mols>  (545) 
x0434_0

>  <creator>  (545) 
Will Poole

>  <energy minimised>  (545) 
True

$$$$
WPC2878_minimised.pdb
     RDKit          3D

 19 20  0  0  0  0  0  0  0  0999 V2000
   15.1460    0.4650   20.3690 O   0  0  0  0  0  0  0  0  0  0  0  0
   14.2810    0.7350   21.4720 N   0  0  0  0  0  0  0  0  0  0  0  0
   13.3310   -0.3750   21.6340 C   0  0  0  0  0  0  0  0  0  0  0  0
   12.1140    0.0530   22.4460 C   0  0  0  0  0  0  0  0  0  0  0  0
   10.8180   -0.2580   21.9930 C   0  0  0  0  0  0  0  0  0  0  0  0
    9.6850    0.1760   22.7000 C   0  0  0  0  0  0  0  0  0  0  0  0
   12.2590    0.8010   23.6310 C   0  0  0  0  0  0  0  0  0  0  0  0
   11.1240    1.2250   24.3420 C   0  0  0  0  0  0  0  0  0  0  0  0
    8.3780   -0.0520   22.2200 N   0  0  0  0  0  0  0  0  0  0  0  0
    9.8410    0.9060   23.8830 C   0  0  0  0  0  0  0  0  0  0  0  0
    7.9460    0.1930   20.9450 C   0  0  0  0  0  0  0  0  0  0  0  0
    8.6740    0.4690   20.0130 O   0  0  0  0  0  0  0  0  0  0  0  0
    6.5850    0.1400   20.8190 N   0  0  0  0  0  0  0  0  0  0  0  0
    5.8690    0.6100   19.6920 C   0  0  0  0  0  0  0  0  0  0  0  0
    6.2280    0.2520   18.3730 C   0  0  0  0  0  0  0  0  0  0  0  0
    4.8530    1.5540   19.8860 C   0  0  0  0  0  0  0  0  0  0  0  0
    5.6340    0.7670   17.2760 N   0  0  0  0  0  0  0  0  0  0  0  0
    4.2610    2.1160   18.7490 C   0  0  0  0  0  0  0  0  0  0  0  0
    4.6940    1.7190   17.4750 C   0  0  0  0  0  0  0  0  0  0  0  0
  1  2  1  0
  2  3  1  0
  3  4  1  0
  4  7  2  0
  4  5  1  0
  5  6  2  0
  6  9  1  0
  6 10  1  0
  7  8  1  0
  8 10  2  0
  9 11  1  0
 11 12  2  0
 11 13  1  0
 13 14  1  0
 14 15  2  0
 14 16  1  0
 15 17  1  0
 16 18  2  0
 17 19  2  0
 18 19  1  0
M  END
>  <original SMILES>  (546) 
O=C(Nc1cccnc1)Nc1cccc(CNO)c1

>  <AutoDock Predicted Affinity>  (546) 
-5.361218

>  <ref_pdb>  (546) 
x0434_0

>  <ref_mols>  (546) 
x0434_0

>  <creator>  (546) 
Will Poole

>  <energy minimised>  (546) 
True

$$$$
WPC2774_minimised.pdb
     RDKit          3D

 18 19  0  0  0  0  0  0  0  0999 V2000
   13.7990   -1.9870   22.1020 O   0  0  0  0  0  0  0  0  0  0  0  0
   13.2860   -0.9080   21.3440 C   0  0  0  0  0  0  0  0  0  0  0  0
   12.1950   -0.1980   22.1200 C   0  0  0  0  0  0  0  0  0  0  0  0
   10.8470   -0.5130   21.8790 C   0  0  0  0  0  0  0  0  0  0  0  0
    9.8250    0.1830   22.5410 C   0  0  0  0  0  0  0  0  0  0  0  0
   12.5150    0.8140   23.0420 C   0  0  0  0  0  0  0  0  0  0  0  0
   11.4920    1.5000   23.7170 C   0  0  0  0  0  0  0  0  0  0  0  0
    8.4720   -0.0330   22.1990 N   0  0  0  0  0  0  0  0  0  0  0  0
   10.1480    1.1790   23.4730 C   0  0  0  0  0  0  0  0  0  0  0  0
    7.9760    0.0930   20.9300 C   0  0  0  0  0  0  0  0  0  0  0  0
    8.6740    0.2360   19.9460 O   0  0  0  0  0  0  0  0  0  0  0  0
    6.6090    0.0980   20.8600 N   0  0  0  0  0  0  0  0  0  0  0  0
    5.8770    0.5530   19.7360 C   0  0  0  0  0  0  0  0  0  0  0  0
    6.2000    0.1620   18.4180 C   0  0  0  0  0  0  0  0  0  0  0  0
    4.8940    1.5320   19.9300 C   0  0  0  0  0  0  0  0  0  0  0  0
    5.6260    0.6980   17.3210 N   0  0  0  0  0  0  0  0  0  0  0  0
    4.3050    2.0970   18.7920 C   0  0  0  0  0  0  0  0  0  0  0  0
    4.7220    1.6830   17.5190 C   0  0  0  0  0  0  0  0  0  0  0  0
  1  2  1  0
  2  3  1  0
  3  4  2  0
  3  6  1  0
  4  5  1  0
  5  9  2  0
  5  8  1  0
  6  7  2  0
  7  9  1  0
  8 10  1  0
 10 11  2  0
 10 12  1  0
 12 13  1  0
 13 14  2  0
 13 15  1  0
 14 16  1  0
 15 17  2  0
 16 18  2  0
 17 18  1  0
M  END
>  <original SMILES>  (547) 
O=C(Nc1cccnc1)Nc1cccc(CO)c1

>  <AutoDock Predicted Affinity>  (547) 
-5.60242

>  <ref_pdb>  (547) 
x0434_0

>  <ref_mols>  (547) 
x0434_0

>  <creator>  (547) 
Will Poole

>  <energy minimised>  (547) 
True

$$$$
WPC2722_minimised.pdb
     RDKit          3D

 21 22  0  0  0  0  0  0  0  0999 V2000
   14.8280   -0.3170   20.3590 O   0  0  0  0  0  0  0  0  0  0  0  0
   14.1550   -1.1550   20.9420 N   0  0  0  0  0  0  0  0  0  0  0  0
   14.1310   -2.3470   20.6610 O   0  0  0  0  0  0  0  0  0  0  0  0
   13.1040   -0.6390   21.7580 O   0  0  0  0  0  0  0  0  0  0  0  0
   12.1040   -1.5570   22.2340 C   0  0  0  0  0  0  0  0  0  0  0  0
   10.9680   -0.7590   22.8480 C   0  0  0  0  0  0  0  0  0  0  0  0
    9.7010   -0.7920   22.2440 C   0  0  0  0  0  0  0  0  0  0  0  0
    8.6370   -0.0560   22.7880 C   0  0  0  0  0  0  0  0  0  0  0  0
   11.1630    0.0410   23.9890 C   0  0  0  0  0  0  0  0  0  0  0  0
   10.0910    0.7500   24.5530 C   0  0  0  0  0  0  0  0  0  0  0  0
    7.3890   -0.0160   22.1400 N   0  0  0  0  0  0  0  0  0  0  0  0
    8.8240    0.6960   23.9550 C   0  0  0  0  0  0  0  0  0  0  0  0
    7.1990    0.2520   20.8150 C   0  0  0  0  0  0  0  0  0  0  0  0
    8.0860    0.3370   19.9860 O   0  0  0  0  0  0  0  0  0  0  0  0
    5.8790    0.4410   20.5240 N   0  0  0  0  0  0  0  0  0  0  0  0
    5.3660    0.9760   19.3230 C   0  0  0  0  0  0  0  0  0  0  0  0
    5.8910    0.6280   18.0590 C   0  0  0  0  0  0  0  0  0  0  0  0
    4.3710    1.9570   19.4020 C   0  0  0  0  0  0  0  0  0  0  0  0
    5.4990    1.2130   16.9100 N   0  0  0  0  0  0  0  0  0  0  0  0
    3.9680    2.5680   18.2110 C   0  0  0  0  0  0  0  0  0  0  0  0
    4.5780    2.2000   17.0050 C   0  0  0  0  0  0  0  0  0  0  0  0
  1  2  1  0
  2  3  2  0
  2  4  1  0
  4  5  1  0
  5  6  1  0
  6  9  2  0
  6  7  1  0
  7  8  2  0
  8 11  1  0
  8 12  1  0
  9 10  1  0
 10 12  2  0
 11 13  1  0
 13 14  2  0
 13 15  1  0
 15 16  1  0
 16 17  2  0
 16 18  1  0
 17 19  1  0
 18 20  2  0
 19 21  2  0
 20 21  1  0
M  CHG  2   1  -1   2   1
M  END
>  <original SMILES>  (548) 
O=C(Nc1cccnc1)Nc1cccc(CO[N+](=O)[O-])c1

>  <AutoDock Predicted Affinity>  (548) 
-5.65924

>  <ref_pdb>  (548) 
x0434_0

>  <ref_mols>  (548) 
x0434_0

>  <creator>  (548) 
Will Poole

>  <energy minimised>  (548) 
True

$$$$
WPC2808_minimised.pdb
     RDKit          3D

 18 19  0  0  0  0  0  0  0  0999 V2000
   13.9540   -1.0710   20.4450 S   0  0  0  0  0  0  0  0  0  0  0  0
   13.4940   -1.1440   22.2160 C   0  0  0  0  0  0  0  0  0  0  0  0
   12.3950   -0.1550   22.5500 C   0  0  0  0  0  0  0  0  0  0  0  0
   11.0520   -0.4710   22.2790 C   0  0  0  0  0  0  0  0  0  0  0  0
   10.0340    0.4370   22.6110 C   0  0  0  0  0  0  0  0  0  0  0  0
   12.7130    1.0850   23.1340 C   0  0  0  0  0  0  0  0  0  0  0  0
   11.6950    1.9990   23.4490 C   0  0  0  0  0  0  0  0  0  0  0  0
    8.6890    0.1580   22.2900 N   0  0  0  0  0  0  0  0  0  0  0  0
   10.3550    1.6690   23.1960 C   0  0  0  0  0  0  0  0  0  0  0  0
    8.1870    0.2110   21.0210 C   0  0  0  0  0  0  0  0  0  0  0  0
    8.8810    0.3270   20.0330 O   0  0  0  0  0  0  0  0  0  0  0  0
    6.8200    0.1840   20.9570 N   0  0  0  0  0  0  0  0  0  0  0  0
    6.0680    0.5820   19.8240 C   0  0  0  0  0  0  0  0  0  0  0  0
    6.3810    0.1490   18.5150 C   0  0  0  0  0  0  0  0  0  0  0  0
    5.0640    1.5430   19.9950 C   0  0  0  0  0  0  0  0  0  0  0  0
    5.7690    0.6250   17.4090 N   0  0  0  0  0  0  0  0  0  0  0  0
    4.4420    2.0490   18.8490 C   0  0  0  0  0  0  0  0  0  0  0  0
    4.8460    1.5970   17.5850 C   0  0  0  0  0  0  0  0  0  0  0  0
  1  2  1  0
  2  3  1  0
  3  4  2  0
  3  6  1  0
  4  5  1  0
  5  9  2  0
  5  8  1  0
  6  7  2  0
  7  9  1  0
  8 10  1  0
 10 11  2  0
 10 12  1  0
 12 13  1  0
 13 14  2  0
 13 15  1  0
 14 16  1  0
 15 17  2  0
 16 18  2  0
 17 18  1  0
M  END
>  <original SMILES>  (549) 
O=C(Nc1cccnc1)Nc1cccc(CS)c1

>  <AutoDock Predicted Affinity>  (549) 
-5.32466

>  <ref_pdb>  (549) 
x0434_0

>  <ref_mols>  (549) 
x0434_0

>  <creator>  (549) 
Will Poole

>  <energy minimised>  (549) 
True

$$$$
WPC2749_minimised.pdb
     RDKit          3D

 21 22  0  0  0  0  0  0  0  0999 V2000
   17.3330    1.0220   18.2550 O   0  0  0  0  0  0  0  0  0  0  0  0
   16.0540    1.3020   18.7980 C   0  0  0  0  0  0  0  0  0  0  0  0
   15.5120    0.1420   19.6440 C   0  0  0  0  0  0  0  0  0  0  0  0
   14.5860    0.8150   21.0990 S   0  0  0  0  0  0  0  0  0  0  0  0
   13.4100   -0.5340   21.5330 C   0  0  0  0  0  0  0  0  0  0  0  0
   12.2270    0.0160   22.3210 C   0  0  0  0  0  0  0  0  0  0  0  0
   10.9130   -0.3170   21.9430 C   0  0  0  0  0  0  0  0  0  0  0  0
    9.8100    0.2380   22.6110 C   0  0  0  0  0  0  0  0  0  0  0  0
   12.4240    0.9000   23.3990 C   0  0  0  0  0  0  0  0  0  0  0  0
   11.3200    1.4430   24.0770 C   0  0  0  0  0  0  0  0  0  0  0  0
    8.4890   -0.0030   22.1760 N   0  0  0  0  0  0  0  0  0  0  0  0
   10.0160    1.1070   23.6900 C   0  0  0  0  0  0  0  0  0  0  0  0
    8.0380    0.1390   20.8910 C   0  0  0  0  0  0  0  0  0  0  0  0
    8.7530    0.2810   19.9200 O   0  0  0  0  0  0  0  0  0  0  0  0
    6.6720    0.1600   20.8010 N   0  0  0  0  0  0  0  0  0  0  0  0
    5.9440    0.6200   19.6780 C   0  0  0  0  0  0  0  0  0  0  0  0
    6.2580    0.2240   18.3580 C   0  0  0  0  0  0  0  0  0  0  0  0
    4.9490    1.5860   19.8760 C   0  0  0  0  0  0  0  0  0  0  0  0
    5.6500    0.7340   17.2660 N   0  0  0  0  0  0  0  0  0  0  0  0
    4.3330    2.1300   18.7430 C   0  0  0  0  0  0  0  0  0  0  0  0
    4.7300    1.7040   17.4680 C   0  0  0  0  0  0  0  0  0  0  0  0
  1  2  1  0
  2  3  1  0
  3  4  1  0
  4  5  1  0
  5  6  1  0
  6  9  2  0
  6  7  1  0
  7  8  2  0
  8 11  1  0
  8 12  1  0
  9 10  1  0
 10 12  2  0
 11 13  1  0
 13 14  2  0
 13 15  1  0
 15 16  1  0
 16 17  2  0
 16 18  1  0
 17 19  1  0
 18 20  2  0
 19 21  2  0
 20 21  1  0
M  END
>  <original SMILES>  (550) 
O=C(Nc1cccnc1)Nc1cccc(CSCCO)c1

>  <AutoDock Predicted Affinity>  (550) 
-4.85417

>  <ref_pdb>  (550) 
x0434_0

>  <ref_mols>  (550) 
x0434_0

>  <creator>  (550) 
Will Poole

>  <energy minimised>  (550) 
True

$$$$
WPC2902_minimised.pdb
     RDKit          3D

 17 18  0  0  0  0  0  0  0  0999 V2000
   13.6030   -1.1400   21.3950 Cl  0  0  0  0  0  0  0  0  0  0  0  0
   12.3280   -0.2340   22.1750 C   0  0  0  0  0  0  0  0  0  0  0  0
   10.9860   -0.5660   21.9330 C   0  0  0  0  0  0  0  0  0  0  0  0
    9.9590    0.1750   22.5390 C   0  0  0  0  0  0  0  0  0  0  0  0
   12.6470    0.8400   23.0210 C   0  0  0  0  0  0  0  0  0  0  0  0
   11.6190    1.5780   23.6290 C   0  0  0  0  0  0  0  0  0  0  0  0
    8.6050   -0.0710   22.2230 N   0  0  0  0  0  0  0  0  0  0  0  0
   10.2770    1.2380   23.3970 C   0  0  0  0  0  0  0  0  0  0  0  0
    8.0840    0.0550   20.9650 C   0  0  0  0  0  0  0  0  0  0  0  0
    8.7650    0.2070   19.9730 O   0  0  0  0  0  0  0  0  0  0  0  0
    6.7160    0.0520   20.9150 N   0  0  0  0  0  0  0  0  0  0  0  0
    5.9680    0.5010   19.7980 C   0  0  0  0  0  0  0  0  0  0  0  0
    6.2700    0.0960   18.4780 C   0  0  0  0  0  0  0  0  0  0  0  0
    4.9930    1.4860   19.9950 C   0  0  0  0  0  0  0  0  0  0  0  0
    5.6840    0.6260   17.3850 N   0  0  0  0  0  0  0  0  0  0  0  0
    4.3910    2.0440   18.8610 C   0  0  0  0  0  0  0  0  0  0  0  0
    4.7870    1.6180   17.5850 C   0  0  0  0  0  0  0  0  0  0  0  0
  1  2  1  0
  2  3  2  0
  2  5  1  0
  3  4  1  0
  4  8  2  0
  4  7  1  0
  5  6  2  0
  6  8  1  0
  7  9  1  0
  9 10  2  0
  9 11  1  0
 11 12  1  0
 12 13  2  0
 12 14  1  0
 13 15  1  0
 14 16  2  0
 15 17  2  0
 16 17  1  0
M  END
>  <original SMILES>  (551) 
O=C(Nc1cccnc1)Nc1cccc(Cl)c1

>  <AutoDock Predicted Affinity>  (551) 
-5.95814

>  <ref_pdb>  (551) 
x0434_0

>  <ref_mols>  (551) 
x0434_0

>  <creator>  (551) 
Will Poole

>  <energy minimised>  (551) 
True

$$$$
WPC2797_minimised.pdb
     RDKit          3D

 17 18  0  0  0  0  0  0  0  0999 V2000
   13.4170   -1.1570   21.4220 F   0  0  0  0  0  0  0  0  0  0  0  0
   12.4670   -0.4270   22.0420 C   0  0  0  0  0  0  0  0  0  0  0  0
   11.1110   -0.7320   21.8520 C   0  0  0  0  0  0  0  0  0  0  0  0
   10.1220    0.0440   22.4780 C   0  0  0  0  0  0  0  0  0  0  0  0
   12.8410    0.6500   22.8580 C   0  0  0  0  0  0  0  0  0  0  0  0
   11.8520    1.4250   23.4860 C   0  0  0  0  0  0  0  0  0  0  0  0
    8.7520   -0.1740   22.2120 N   0  0  0  0  0  0  0  0  0  0  0  0
   10.4950    1.1150   23.3030 C   0  0  0  0  0  0  0  0  0  0  0  0
    8.1820   -0.0050   20.9800 C   0  0  0  0  0  0  0  0  0  0  0  0
    8.8300    0.1810   19.9710 O   0  0  0  0  0  0  0  0  0  0  0  0
    6.8130   -0.0070   20.9640 N   0  0  0  0  0  0  0  0  0  0  0  0
    6.0410    0.4460   19.8620 C   0  0  0  0  0  0  0  0  0  0  0  0
    6.3150    0.0390   18.5360 C   0  0  0  0  0  0  0  0  0  0  0  0
    5.0740    1.4360   20.0750 C   0  0  0  0  0  0  0  0  0  0  0  0
    5.7110    0.5700   17.4530 N   0  0  0  0  0  0  0  0  0  0  0  0
    4.4530    1.9960   18.9510 C   0  0  0  0  0  0  0  0  0  0  0  0
    4.8220    1.5660   17.6680 C   0  0  0  0  0  0  0  0  0  0  0  0
  1  2  1  0
  2  3  2  0
  2  5  1  0
  3  4  1  0
  4  8  2  0
  4  7  1  0
  5  6  2  0
  6  8  1  0
  7  9  1  0
  9 10  2  0
  9 11  1  0
 11 12  1  0
 12 13  2  0
 12 14  1  0
 13 15  1  0
 14 16  2  0
 15 17  2  0
 16 17  1  0
M  END
>  <original SMILES>  (552) 
O=C(Nc1cccnc1)Nc1cccc(F)c1

>  <AutoDock Predicted Affinity>  (552) 
-5.82869

>  <ref_pdb>  (552) 
x0434_0

>  <ref_mols>  (552) 
x0434_0

>  <creator>  (552) 
Will Poole

>  <energy minimised>  (552) 
True

$$$$
WPC2804_minimised.pdb
     RDKit          3D

 17 18  0  0  0  0  0  0  0  0999 V2000
   13.5940   -1.1910   21.4030 I   0  0  0  0  0  0  0  0  0  0  0  0
   12.0410   -0.0840   22.3300 C   0  0  0  0  0  0  0  0  0  0  0  0
   10.7120   -0.4060   22.0350 C   0  0  0  0  0  0  0  0  0  0  0  0
    9.6680    0.3280   22.6200 C   0  0  0  0  0  0  0  0  0  0  0  0
   12.3420    0.9740   23.2010 C   0  0  0  0  0  0  0  0  0  0  0  0
   11.2970    1.7040   23.7920 C   0  0  0  0  0  0  0  0  0  0  0  0
    8.3300    0.0880   22.2440 N   0  0  0  0  0  0  0  0  0  0  0  0
    9.9610    1.3740   23.5090 C   0  0  0  0  0  0  0  0  0  0  0  0
    7.8760    0.1720   20.9570 C   0  0  0  0  0  0  0  0  0  0  0  0
    8.6080    0.2980   19.9950 O   0  0  0  0  0  0  0  0  0  0  0  0
    6.5130    0.1570   20.8470 N   0  0  0  0  0  0  0  0  0  0  0  0
    5.8070    0.6040   19.7050 C   0  0  0  0  0  0  0  0  0  0  0  0
    6.1660    0.2110   18.3960 C   0  0  0  0  0  0  0  0  0  0  0  0
    4.8150    1.5770   19.8720 C   0  0  0  0  0  0  0  0  0  0  0  0
    5.6180    0.7460   17.2840 N   0  0  0  0  0  0  0  0  0  0  0  0
    4.2550    2.1410   18.7200 C   0  0  0  0  0  0  0  0  0  0  0  0
    4.7070    1.7290   17.4590 C   0  0  0  0  0  0  0  0  0  0  0  0
  1  2  1  0
  2  3  2  0
  2  5  1  0
  3  4  1  0
  4  8  2  0
  4  7  1  0
  5  6  2  0
  6  8  1  0
  7  9  1  0
  9 10  2  0
  9 11  1  0
 11 12  1  0
 12 13  2  0
 12 14  1  0
 13 15  1  0
 14 16  2  0
 15 17  2  0
 16 17  1  0
M  END
>  <original SMILES>  (553) 
O=C(Nc1cccnc1)Nc1cccc(I)c1

>  <AutoDock Predicted Affinity>  (553) 
-5.49061

>  <ref_pdb>  (553) 
x0434_0

>  <ref_mols>  (553) 
x0434_0

>  <creator>  (553) 
Will Poole

>  <energy minimised>  (553) 
True

$$$$
WPC2757_minimised.pdb
     RDKit          3D

 18 19  0  0  0  0  0  0  0  0999 V2000
   13.5350   -1.4010   21.1730 O   0  0  0  0  0  0  0  0  0  0  0  0
   13.5540   -0.2040   21.9470 N   0  0  0  0  0  0  0  0  0  0  0  0
   12.3710    0.3200   22.4520 C   0  0  0  0  0  0  0  0  0  0  0  0
   11.1060   -0.2250   22.1580 C   0  0  0  0  0  0  0  0  0  0  0  0
    9.9440    0.3620   22.6890 C   0  0  0  0  0  0  0  0  0  0  0  0
   12.4550    1.4570   23.2690 C   0  0  0  0  0  0  0  0  0  0  0  0
   11.2970    2.0350   23.8110 C   0  0  0  0  0  0  0  0  0  0  0  0
    8.6580   -0.0820   22.3160 N   0  0  0  0  0  0  0  0  0  0  0  0
   10.0430    1.4790   23.5290 C   0  0  0  0  0  0  0  0  0  0  0  0
    8.1550    0.0440   21.0510 C   0  0  0  0  0  0  0  0  0  0  0  0
    8.8380    0.2860   20.0790 O   0  0  0  0  0  0  0  0  0  0  0  0
    6.7910   -0.0500   20.9690 N   0  0  0  0  0  0  0  0  0  0  0  0
    6.0460    0.4110   19.8540 C   0  0  0  0  0  0  0  0  0  0  0  0
    6.3640    0.0260   18.5310 C   0  0  0  0  0  0  0  0  0  0  0  0
    5.0690    1.3940   20.0540 C   0  0  0  0  0  0  0  0  0  0  0  0
    5.7790    0.5640   17.4390 N   0  0  0  0  0  0  0  0  0  0  0  0
    4.4740    1.9640   18.9220 C   0  0  0  0  0  0  0  0  0  0  0  0
    4.8760    1.5480   17.6440 C   0  0  0  0  0  0  0  0  0  0  0  0
  1  2  1  0
  2  3  1  0
  3  4  2  0
  3  6  1  0
  4  5  1  0
  5  9  2  0
  5  8  1  0
  6  7  2  0
  7  9  1  0
  8 10  1  0
 10 11  2  0
 10 12  1  0
 12 13  1  0
 13 14  2  0
 13 15  1  0
 14 16  1  0
 15 17  2  0
 16 18  2  0
 17 18  1  0
M  END
>  <original SMILES>  (554) 
O=C(Nc1cccnc1)Nc1cccc(NO)c1

>  <AutoDock Predicted Affinity>  (554) 
-5.575995

>  <ref_pdb>  (554) 
x0434_0

>  <ref_mols>  (554) 
x0434_0

>  <creator>  (554) 
Will Poole

>  <energy minimised>  (554) 
True

$$$$
WPC2820_minimised.pdb
     RDKit          3D

 18 19  0  0  0  0  0  0  0  0999 V2000
   13.6220   -1.4720   21.1130 S   0  0  0  0  0  0  0  0  0  0  0  0
   13.4360    0.0050   21.9540 N   0  0  0  0  0  0  0  0  0  0  0  0
   12.2620    0.4870   22.5040 C   0  0  0  0  0  0  0  0  0  0  0  0
   11.0110   -0.0790   22.2110 C   0  0  0  0  0  0  0  0  0  0  0  0
    9.8430    0.4780   22.7540 C   0  0  0  0  0  0  0  0  0  0  0  0
   12.3350    1.6100   23.3370 C   0  0  0  0  0  0  0  0  0  0  0  0
   11.1720    2.1510   23.9060 C   0  0  0  0  0  0  0  0  0  0  0  0
    8.5680    0.0260   22.3600 N   0  0  0  0  0  0  0  0  0  0  0  0
    9.9260    1.5760   23.6200 C   0  0  0  0  0  0  0  0  0  0  0  0
    8.1040    0.0990   21.0760 C   0  0  0  0  0  0  0  0  0  0  0  0
    8.8150    0.2930   20.1110 O   0  0  0  0  0  0  0  0  0  0  0  0
    6.7430    0.0090   20.9690 N   0  0  0  0  0  0  0  0  0  0  0  0
    6.0150    0.4580   19.8380 C   0  0  0  0  0  0  0  0  0  0  0  0
    6.3480    0.0650   18.5230 C   0  0  0  0  0  0  0  0  0  0  0  0
    5.0300    1.4360   20.0220 C   0  0  0  0  0  0  0  0  0  0  0  0
    5.7720    0.5920   17.4210 N   0  0  0  0  0  0  0  0  0  0  0  0
    4.4430    1.9940   18.8800 C   0  0  0  0  0  0  0  0  0  0  0  0
    4.8620    1.5730   17.6100 C   0  0  0  0  0  0  0  0  0  0  0  0
  1  2  1  0
  2  3  1  0
  3  4  2  0
  3  6  1  0
  4  5  1  0
  5  9  2  0
  5  8  1  0
  6  7  2  0
  7  9  1  0
  8 10  1  0
 10 11  2  0
 10 12  1  0
 12 13  1  0
 13 14  2  0
 13 15  1  0
 14 16  1  0
 15 17  2  0
 16 18  2  0
 17 18  1  0
M  END
>  <original SMILES>  (555) 
O=C(Nc1cccnc1)Nc1cccc(NS)c1

>  <AutoDock Predicted Affinity>  (555) 
-5.35094

>  <ref_pdb>  (555) 
x0434_0

>  <ref_mols>  (555) 
x0434_0

>  <creator>  (555) 
Will Poole

>  <energy minimised>  (555) 
True

$$$$
WPC2818_minimised.pdb
     RDKit          3D

 17 18  0  0  0  0  0  0  0  0999 V2000
   13.2730   -1.1330   21.2470 O   0  0  0  0  0  0  0  0  0  0  0  0
   12.3940   -0.3880   21.9640 C   0  0  0  0  0  0  0  0  0  0  0  0
   11.0200   -0.6150   21.8150 C   0  0  0  0  0  0  0  0  0  0  0  0
   10.0930    0.2040   22.4730 C   0  0  0  0  0  0  0  0  0  0  0  0
   12.8490    0.6430   22.7950 C   0  0  0  0  0  0  0  0  0  0  0  0
   11.9210    1.4550   23.4690 C   0  0  0  0  0  0  0  0  0  0  0  0
    8.7130    0.0670   22.2160 N   0  0  0  0  0  0  0  0  0  0  0  0
   10.5440    1.2310   23.3130 C   0  0  0  0  0  0  0  0  0  0  0  0
    8.1590    0.1290   20.9660 C   0  0  0  0  0  0  0  0  0  0  0  0
    8.8130    0.1560   19.9440 O   0  0  0  0  0  0  0  0  0  0  0  0
    6.7900    0.1990   20.9500 N   0  0  0  0  0  0  0  0  0  0  0  0
    6.0210    0.6070   19.8290 C   0  0  0  0  0  0  0  0  0  0  0  0
    6.3080    0.1780   18.5120 C   0  0  0  0  0  0  0  0  0  0  0  0
    5.0200    1.5670   20.0190 C   0  0  0  0  0  0  0  0  0  0  0  0
    5.6840    0.6610   17.4170 N   0  0  0  0  0  0  0  0  0  0  0  0
    4.3830    2.0810   18.8830 C   0  0  0  0  0  0  0  0  0  0  0  0
    4.7700    1.6370   17.6110 C   0  0  0  0  0  0  0  0  0  0  0  0
  1  2  1  0
  2  3  2  0
  2  5  1  0
  3  4  1  0
  4  8  2  0
  4  7  1  0
  5  6  2  0
  6  8  1  0
  7  9  1  0
  9 10  2  0
  9 11  1  0
 11 12  1  0
 12 13  2  0
 12 14  1  0
 13 15  1  0
 14 16  2  0
 15 17  2  0
 16 17  1  0
M  END
>  <original SMILES>  (556) 
O=C(Nc1cccnc1)Nc1cccc(O)c1

>  <AutoDock Predicted Affinity>  (556) 
-5.55065

>  <ref_pdb>  (556) 
x0434_0

>  <ref_mols>  (556) 
x0434_0

>  <creator>  (556) 
Will Poole

>  <energy minimised>  (556) 
True

$$$$
WPC2696_minimised.pdb
     RDKit          3D

 20 22  0  0  0  0  0  0  0  0999 V2000
   14.0810   -1.2420   20.7170 C   0  0  0  0  0  0  0  0  0  0  0  0
   12.6020   -1.0400   20.8930 C   0  0  0  0  0  0  0  0  0  0  0  0
   13.5070   -1.0490   22.0980 C   0  0  0  0  0  0  0  0  0  0  0  0
   13.8060    0.1810   22.7310 O   0  0  0  0  0  0  0  0  0  0  0  0
   12.8370    1.1400   22.9350 C   0  0  0  0  0  0  0  0  0  0  0  0
   11.4790    0.7960   23.0670 C   0  0  0  0  0  0  0  0  0  0  0  0
   10.4960    1.7920   23.0400 C   0  0  0  0  0  0  0  0  0  0  0  0
   13.2090    2.4910   22.8750 C   0  0  0  0  0  0  0  0  0  0  0  0
   12.2280    3.4960   22.9200 C   0  0  0  0  0  0  0  0  0  0  0  0
    9.1490    1.4250   22.8360 N   0  0  0  0  0  0  0  0  0  0  0  0
   10.8700    3.1430   22.9860 C   0  0  0  0  0  0  0  0  0  0  0  0
    8.6620    1.0980   21.5960 C   0  0  0  0  0  0  0  0  0  0  0  0
    9.3820    0.9820   20.6250 O   0  0  0  0  0  0  0  0  0  0  0  0
    7.3010    0.9370   21.5090 N   0  0  0  0  0  0  0  0  0  0  0  0
    6.5550    0.9550   20.2970 C   0  0  0  0  0  0  0  0  0  0  0  0
    6.9540    0.2640   19.1260 C   0  0  0  0  0  0  0  0  0  0  0  0
    5.4300    1.7880   20.2310 C   0  0  0  0  0  0  0  0  0  0  0  0
    6.3190    0.3820   17.9350 N   0  0  0  0  0  0  0  0  0  0  0  0
    4.7880    1.9300   18.9960 C   0  0  0  0  0  0  0  0  0  0  0  0
    5.2800    1.2440   17.8780 C   0  0  0  0  0  0  0  0  0  0  0  0
  1  2  1  0
  1  3  1  0
  2  3  1  0
  3  4  1  0
  4  5  1  0
  5  8  1  0
  5  6  2  0
  6  7  1  0
  7 10  1  0
  7 11  2  0
  8  9  2  0
  9 11  1  0
 10 12  1  0
 12 13  2  0
 12 14  1  0
 14 15  1  0
 15 16  2  0
 15 17  1  0
 16 18  1  0
 17 19  2  0
 18 20  2  0
 19 20  1  0
M  END
>  <original SMILES>  (557) 
O=C(Nc1cccnc1)Nc1cccc(OC2CC2)c1

>  <AutoDock Predicted Affinity>  (557) 
-6.28187

>  <ref_pdb>  (557) 
x0434_0

>  <ref_mols>  (557) 
x0434_0

>  <creator>  (557) 
Will Poole

>  <energy minimised>  (557) 
True

$$$$
WPC2737_minimised.pdb
     RDKit          3D

 19 20  0  0  0  0  0  0  0  0999 V2000
   14.3120    0.1450   21.4930 O   0  0  0  0  0  0  0  0  0  0  0  0
   13.2170   -0.8670   22.2110 P   0  0  0  0  0  0  0  0  0  0  0  0
   12.6080   -1.6010   20.8530 O   0  0  0  0  0  0  0  0  0  0  0  0
   11.8970    0.2800   22.7210 C   0  0  0  0  0  0  0  0  0  0  0  0
   10.5610   -0.0010   22.3980 C   0  0  0  0  0  0  0  0  0  0  0  0
    9.5390    0.8660   22.8070 C   0  0  0  0  0  0  0  0  0  0  0  0
   12.2120    1.4400   23.4480 C   0  0  0  0  0  0  0  0  0  0  0  0
   11.1880    2.3140   23.8520 C   0  0  0  0  0  0  0  0  0  0  0  0
    8.2060    0.6190   22.4190 N   0  0  0  0  0  0  0  0  0  0  0  0
    9.8510    2.0230   23.5370 C   0  0  0  0  0  0  0  0  0  0  0  0
    7.7930    0.5480   21.1180 C   0  0  0  0  0  0  0  0  0  0  0  0
    8.5540    0.5660   20.1720 O   0  0  0  0  0  0  0  0  0  0  0  0
    6.4340    0.5030   20.9700 N   0  0  0  0  0  0  0  0  0  0  0  0
    5.7520    0.8360   19.7760 C   0  0  0  0  0  0  0  0  0  0  0  0
    6.1560    0.3580   18.5070 C   0  0  0  0  0  0  0  0  0  0  0  0
    4.7320    1.7920   19.8470 C   0  0  0  0  0  0  0  0  0  0  0  0
    5.6240    0.7950   17.3450 N   0  0  0  0  0  0  0  0  0  0  0  0
    4.1920    2.2570   18.6440 C   0  0  0  0  0  0  0  0  0  0  0  0
    4.6890    1.7690   17.4280 C   0  0  0  0  0  0  0  0  0  0  0  0
  1  2  1  0
  2  4  1  0
  2  3  1  0
  4  5  2  0
  4  7  1  0
  5  6  1  0
  6 10  2  0
  6  9  1  0
  7  8  2  0
  8 10  1  0
  9 11  1  0
 11 12  2  0
 11 13  1  0
 13 14  1  0
 14 15  2  0
 14 16  1  0
 15 17  1  0
 16 18  2  0
 17 19  2  0
 18 19  1  0
M  END
>  <original SMILES>  (558) 
O=C(Nc1cccnc1)Nc1cccc(P(O)O)c1

>  <AutoDock Predicted Affinity>  (558) 
-5.51971

>  <ref_pdb>  (558) 
x0434_0

>  <ref_mols>  (558) 
x0434_0

>  <creator>  (558) 
Will Poole

>  <energy minimised>  (558) 
True

$$$$
WPC2817_minimised.pdb
     RDKit          3D

 17 18  0  0  0  0  0  0  0  0999 V2000
   13.5700   -1.1130   21.4220 S   0  0  0  0  0  0  0  0  0  0  0  0
   12.3150   -0.1320   22.2060 C   0  0  0  0  0  0  0  0  0  0  0  0
   10.9620   -0.4360   21.9960 C   0  0  0  0  0  0  0  0  0  0  0  0
    9.9560    0.3560   22.5720 C   0  0  0  0  0  0  0  0  0  0  0  0
   12.6610    0.9700   23.0040 C   0  0  0  0  0  0  0  0  0  0  0  0
   11.6560    1.7600   23.5870 C   0  0  0  0  0  0  0  0  0  0  0  0
    8.5990    0.1250   22.2670 N   0  0  0  0  0  0  0  0  0  0  0  0
   10.3040    1.4470   23.3790 C   0  0  0  0  0  0  0  0  0  0  0  0
    8.0830    0.1840   21.0010 C   0  0  0  0  0  0  0  0  0  0  0  0
    8.7680    0.2760   20.0040 O   0  0  0  0  0  0  0  0  0  0  0  0
    6.7140    0.1760   20.9450 N   0  0  0  0  0  0  0  0  0  0  0  0
    5.9640    0.5860   19.8140 C   0  0  0  0  0  0  0  0  0  0  0  0
    6.2880    0.1780   18.4990 C   0  0  0  0  0  0  0  0  0  0  0  0
    4.9520    1.5370   19.9940 C   0  0  0  0  0  0  0  0  0  0  0  0
    5.6820    0.6670   17.3970 N   0  0  0  0  0  0  0  0  0  0  0  0
    4.3390    2.0630   18.8500 C   0  0  0  0  0  0  0  0  0  0  0  0
    4.7540    1.6320   17.5820 C   0  0  0  0  0  0  0  0  0  0  0  0
  1  2  1  0
  2  3  2  0
  2  5  1  0
  3  4  1  0
  4  8  2  0
  4  7  1  0
  5  6  2  0
  6  8  1  0
  7  9  1  0
  9 10  2  0
  9 11  1  0
 11 12  1  0
 12 13  2  0
 12 14  1  0
 13 15  1  0
 14 16  2  0
 15 17  2  0
 16 17  1  0
M  END
>  <original SMILES>  (559) 
O=C(Nc1cccnc1)Nc1cccc(S)c1

>  <AutoDock Predicted Affinity>  (559) 
-5.33905

>  <ref_pdb>  (559) 
x0434_0

>  <ref_mols>  (559) 
x0434_0

>  <creator>  (559) 
Will Poole

>  <energy minimised>  (559) 
True

$$$$
WPC2714_minimised.pdb
     RDKit          3D

 20 21  0  0  0  0  0  0  0  0999 V2000
   15.0930    1.1290   20.8350 O   0  0  0  0  0  0  0  0  0  0  0  0
   14.7470    1.5680   22.1460 C   0  0  0  0  0  0  0  0  0  0  0  0
   13.2610    1.3430   22.4400 C   0  0  0  0  0  0  0  0  0  0  0  0
   12.8330   -0.4400   22.3420 S   0  0  0  0  0  0  0  0  0  0  0  0
   11.2620   -0.3980   23.1600 C   0  0  0  0  0  0  0  0  0  0  0  0
   10.0920   -0.4340   22.3960 C   0  0  0  0  0  0  0  0  0  0  0  0
    8.8440   -0.2720   23.0170 C   0  0  0  0  0  0  0  0  0  0  0  0
   11.1900   -0.2360   24.5520 C   0  0  0  0  0  0  0  0  0  0  0  0
    9.9440   -0.1140   25.1850 C   0  0  0  0  0  0  0  0  0  0  0  0
    7.6460   -0.2090   22.2760 N   0  0  0  0  0  0  0  0  0  0  0  0
    8.7710   -0.1290   24.4130 C   0  0  0  0  0  0  0  0  0  0  0  0
    7.4670    0.2340   20.9930 C   0  0  0  0  0  0  0  0  0  0  0  0
    8.3440    0.5350   20.2040 O   0  0  0  0  0  0  0  0  0  0  0  0
    6.1390    0.3190   20.6920 N   0  0  0  0  0  0  0  0  0  0  0  0
    5.5880    0.8640   19.5140 C   0  0  0  0  0  0  0  0  0  0  0  0
    6.0730    0.5140   18.2360 C   0  0  0  0  0  0  0  0  0  0  0  0
    4.5810    1.8290   19.6250 C   0  0  0  0  0  0  0  0  0  0  0  0
    5.6100    1.0640   17.0950 N   0  0  0  0  0  0  0  0  0  0  0  0
    4.1180    2.4180   18.4440 C   0  0  0  0  0  0  0  0  0  0  0  0
    4.6700    2.0300   17.2150 C   0  0  0  0  0  0  0  0  0  0  0  0
  1  2  1  0
  2  3  1  0
  3  4  1  0
  4  5  1  0
  5  8  2  0
  5  6  1  0
  6  7  2  0
  7 10  1  0
  7 11  1  0
  8  9  1  0
  9 11  2  0
 10 12  1  0
 12 13  2  0
 12 14  1  0
 14 15  1  0
 15 16  2  0
 15 17  1  0
 16 18  1  0
 17 19  2  0
 18 20  2  0
 19 20  1  0
M  END
>  <original SMILES>  (560) 
O=C(Nc1cccnc1)Nc1cccc(SCCO)c1

>  <AutoDock Predicted Affinity>  (560) 
-4.98055

>  <ref_pdb>  (560) 
x0434_0

>  <ref_mols>  (560) 
x0434_0

>  <creator>  (560) 
Will Poole

>  <energy minimised>  (560) 
True

$$$$
WPC2746_minimised.pdb
     RDKit          3D

 19 20  0  0  0  0  0  0  0  0999 V2000
   14.8340   -2.1860   19.6540 O   0  0  0  0  0  0  0  0  0  0  0  0
   13.7310   -1.1930   21.2050 I   0  0  0  0  0  0  0  0  0  0  0  0
   15.0370   -1.1140   19.5660 O   0  0  0  0  0  0  0  0  0  0  0  0
   12.2540   -0.2410   22.3420 C   0  0  0  0  0  0  0  0  0  0  0  0
   10.9860   -0.8340   22.2770 C   0  0  0  0  0  0  0  0  0  0  0  0
    9.9690   -0.3380   23.0860 C   0  0  0  0  0  0  0  0  0  0  0  0
   12.4970    0.8720   23.1700 C   0  0  0  0  0  0  0  0  0  0  0  0
   11.5040    1.2610   24.0840 C   0  0  0  0  0  0  0  0  0  0  0  0
    8.6350   -0.7200   22.7340 N   0  0  0  0  0  0  0  0  0  0  0  0
   10.2400    0.6480   24.0530 C   0  0  0  0  0  0  0  0  0  0  0  0
    8.1730   -0.1860   21.5010 C   0  0  0  0  0  0  0  0  0  0  0  0
    8.8760    0.5300   20.7760 O   0  0  0  0  0  0  0  0  0  0  0  0
    7.0240   -0.8450   20.9830 N   0  0  0  0  0  0  0  0  0  0  0  0
    6.4010   -0.1450   19.9410 C   0  0  0  0  0  0  0  0  0  0  0  0
    6.9300   -0.1560   18.7210 C   0  0  0  0  0  0  0  0  0  0  0  0
    5.3240    0.6820   20.1650 C   0  0  0  0  0  0  0  0  0  0  0  0
    6.4530    0.5190   17.7190 N   0  0  0  0  0  0  0  0  0  0  0  0
    4.8720    1.4150   19.1660 C   0  0  0  0  0  0  0  0  0  0  0  0
    5.4400    1.2900   17.9370 C   0  0  0  0  0  0  0  0  0  0  0  0
  1  2  1  0
  2  4  1  0
  2  3  1  0
  4  5  2  0
  4  7  1  0
  5  6  1  0
  6 10  2  0
  6  9  1  0
  7  8  2  0
  8 10  1  0
  9 11  1  0
 11 12  2  0
 11 13  1  0
 13 14  1  0
 14 15  2  0
 14 16  1  0
 15 17  1  0
 16 18  2  0
 17 19  2  0
 18 19  1  0
M  END
>  <original SMILES>  (561) 
O=C(Nc1cccnc1)Nc1cccc([IH2](O)O)c1

>  <AutoDock Predicted Affinity>  (561) 
-6.32785

>  <ref_pdb>  (561) 
x0434_0

>  <ref_mols>  (561) 
x0434_0

>  <creator>  (561) 
Will Poole

>  <energy minimised>  (561) 
True

$$$$
WPC2861_minimised.pdb
     RDKit          3D

 19 20  0  0  0  0  0  0  0  0999 V2000
   14.0810   -1.3320   20.4990 O   0  0  0  0  0  0  0  0  0  0  0  0
   13.9100   -0.9940   22.1410 S   0  0  0  0  0  0  0  0  0  0  0  0
   13.3780   -2.5200   22.5770 O   0  0  0  0  0  0  0  0  0  0  0  0
   12.5190    0.1070   22.4020 C   0  0  0  0  0  0  0  0  0  0  0  0
   11.1960   -0.3200   22.2020 C   0  0  0  0  0  0  0  0  0  0  0  0
   10.1310    0.5530   22.4880 C   0  0  0  0  0  0  0  0  0  0  0  0
   12.7760    1.3970   22.8890 C   0  0  0  0  0  0  0  0  0  0  0  0
   11.7160    2.2790   23.1480 C   0  0  0  0  0  0  0  0  0  0  0  0
    8.7890    0.1690   22.2670 N   0  0  0  0  0  0  0  0  0  0  0  0
   10.3930    1.8530   22.9510 C   0  0  0  0  0  0  0  0  0  0  0  0
    8.1690    0.2390   21.0510 C   0  0  0  0  0  0  0  0  0  0  0  0
    8.7530    0.4570   20.0130 O   0  0  0  0  0  0  0  0  0  0  0  0
    6.8040    0.1170   21.0700 N   0  0  0  0  0  0  0  0  0  0  0  0
    6.0030    0.4960   19.9620 C   0  0  0  0  0  0  0  0  0  0  0  0
    6.2690    0.0190   18.6570 C   0  0  0  0  0  0  0  0  0  0  0  0
    5.0490    1.5060   20.1300 C   0  0  0  0  0  0  0  0  0  0  0  0
    5.6600    0.4970   17.5490 N   0  0  0  0  0  0  0  0  0  0  0  0
    4.4330    2.0200   18.9810 C   0  0  0  0  0  0  0  0  0  0  0  0
    4.7900    1.5170   17.7200 C   0  0  0  0  0  0  0  0  0  0  0  0
  1  2  1  0
  2  4  1  0
  2  3  1  0
  4  5  2  0
  4  7  1  0
  5  6  1  0
  6 10  2  0
  6  9  1  0
  7  8  2  0
  8 10  1  0
  9 11  1  0
 11 12  2  0
 11 13  1  0
 13 14  1  0
 14 15  2  0
 14 16  1  0
 15 17  1  0
 16 18  2  0
 17 19  2  0
 18 19  1  0
M  END
>  <original SMILES>  (562) 
O=C(Nc1cccnc1)Nc1cccc([SH](O)O)c1

>  <AutoDock Predicted Affinity>  (562) 
-4.98369

>  <ref_pdb>  (562) 
x0434_0

>  <ref_mols>  (562) 
x0434_0

>  <creator>  (562) 
Will Poole

>  <energy minimised>  (562) 
True

$$$$
WPC2713_minimised.pdb
     RDKit          3D

 23 24  0  0  0  0  0  0  0  0999 V2000
   16.4500    0.8500   19.6640 O   0  0  0  0  0  0  0  0  0  0  0  0
   15.3400    0.4410   19.9180 C   0  0  0  0  0  0  0  0  0  0  0  0
   14.6360   -0.2610   19.0160 O   0  0  0  0  0  0  0  0  0  0  0  0
   14.6190    0.6720   21.2410 C   0  0  0  0  0  0  0  0  0  0  0  0
   14.0250   -0.6070   21.8850 C   0  0  0  0  0  0  0  0  0  0  0  0
   12.6690   -0.3080   22.5430 C   0  0  0  0  0  0  0  0  0  0  0  0
   12.8790    0.9770   23.8460 S   0  0  0  0  0  0  0  0  0  0  0  0
   11.4440    1.9920   23.6090 C   0  0  0  0  0  0  0  0  0  0  0  0
   10.2010    1.3860   23.3850 C   0  0  0  0  0  0  0  0  0  0  0  0
    9.0930    2.1720   23.0580 C   0  0  0  0  0  0  0  0  0  0  0  0
   11.5700    3.3890   23.5430 C   0  0  0  0  0  0  0  0  0  0  0  0
   10.4460    4.1810   23.2590 C   0  0  0  0  0  0  0  0  0  0  0  0
    7.9050    1.5500   22.6380 N   0  0  0  0  0  0  0  0  0  0  0  0
    9.2060    3.5690   23.0110 C   0  0  0  0  0  0  0  0  0  0  0  0
    7.6830    1.1480   21.3500 C   0  0  0  0  0  0  0  0  0  0  0  0
    8.5400    1.1010   20.4860 O   0  0  0  0  0  0  0  0  0  0  0  0
    6.3710    0.8510   21.1080 N   0  0  0  0  0  0  0  0  0  0  0  0
    5.7420    1.0190   19.8530 C   0  0  0  0  0  0  0  0  0  0  0  0
    6.2470    0.4690   18.6520 C   0  0  0  0  0  0  0  0  0  0  0  0
    4.6560    1.8980   19.7960 C   0  0  0  0  0  0  0  0  0  0  0  0
    5.7310    0.7500   17.4340 N   0  0  0  0  0  0  0  0  0  0  0  0
    4.1460    2.2210   18.5360 C   0  0  0  0  0  0  0  0  0  0  0  0
    4.7290    1.6590   17.3940 C   0  0  0  0  0  0  0  0  0  0  0  0
  1  2  2  0
  2  3  1  0
  2  4  1  0
  4  5  1  0
  5  6  1  0
  6  7  1  0
  7  8  1  0
  8 11  2  0
  8  9  1  0
  9 10  2  0
 10 13  1  0
 10 14  1  0
 11 12  1  0
 12 14  2  0
 13 15  1  0
 15 16  2  0
 15 17  1  0
 17 18  1  0
 18 19  2  0
 18 20  1  0
 19 21  1  0
 20 22  2  0
 21 23  2  0
 22 23  1  0
M  END
>  <original SMILES>  (563) 
O=C(O)CCCSc1cccc(NC(=O)Nc2cccnc2)c1

>  <AutoDock Predicted Affinity>  (563) 
-5.23134

>  <ref_pdb>  (563) 
x0434_0

>  <ref_mols>  (563) 
x0434_0

>  <creator>  (563) 
Will Poole

>  <energy minimised>  (563) 
True

$$$$
WPC2845_minimised.pdb
     RDKit          3D

 21 22  0  0  0  0  0  0  0  0999 V2000
   16.4410    1.3740   19.1520 O   0  0  0  0  0  0  0  0  0  0  0  0
   15.8140    1.6080   20.1630 C   0  0  0  0  0  0  0  0  0  0  0  0
   14.9050    0.6930   20.6140 N   0  0  0  0  0  0  0  0  0  0  0  0
   13.9640    0.9350   21.7070 C   0  0  0  0  0  0  0  0  0  0  0  0
   13.1820   -0.3540   22.0020 C   0  0  0  0  0  0  0  0  0  0  0  0
   11.9160   -0.1090   22.8060 C   0  0  0  0  0  0  0  0  0  0  0  0
   10.6650   -0.2150   22.1750 C   0  0  0  0  0  0  0  0  0  0  0  0
    9.4780   -0.0070   22.8970 C   0  0  0  0  0  0  0  0  0  0  0  0
   11.9710    0.2030   24.1750 C   0  0  0  0  0  0  0  0  0  0  0  0
   10.7850    0.3580   24.9120 C   0  0  0  0  0  0  0  0  0  0  0  0
    8.2060   -0.0590   22.2850 N   0  0  0  0  0  0  0  0  0  0  0  0
    9.5420    0.2600   24.2720 C   0  0  0  0  0  0  0  0  0  0  0  0
    7.8770    0.2800   21.0000 C   0  0  0  0  0  0  0  0  0  0  0  0
    8.6630    0.5750   20.1210 O   0  0  0  0  0  0  0  0  0  0  0  0
    6.5240    0.2670   20.8040 N   0  0  0  0  0  0  0  0  0  0  0  0
    5.8570    0.7430   19.6530 C   0  0  0  0  0  0  0  0  0  0  0  0
    6.2520    0.3720   18.3490 C   0  0  0  0  0  0  0  0  0  0  0  0
    4.8270    1.6780   19.8120 C   0  0  0  0  0  0  0  0  0  0  0  0
    5.6750    0.8620   17.2320 N   0  0  0  0  0  0  0  0  0  0  0  0
    4.2560    2.2180   18.6550 C   0  0  0  0  0  0  0  0  0  0  0  0
    4.7200    1.8060   17.3970 C   0  0  0  0  0  0  0  0  0  0  0  0
  1  2  2  0
  2  3  1  0
  3  4  1  0
  4  5  1  0
  5  6  1  0
  6  9  2  0
  6  7  1  0
  7  8  2  0
  8 11  1  0
  8 12  1  0
  9 10  1  0
 10 12  2  0
 11 13  1  0
 13 14  2  0
 13 15  1  0
 15 16  1  0
 16 17  2  0
 16 18  1  0
 17 19  1  0
 18 20  2  0
 19 21  2  0
 20 21  1  0
M  END
>  <original SMILES>  (564) 
O=CNCCc1cccc(NC(=O)Nc2cccnc2)c1

>  <AutoDock Predicted Affinity>  (564) 
-4.87133

>  <ref_pdb>  (564) 
x0434_0

>  <ref_mols>  (564) 
x0434_0

>  <creator>  (564) 
Will Poole

>  <energy minimised>  (564) 
True

$$$$
WPC2762_minimised.pdb
     RDKit          3D

 20 21  0  0  0  0  0  0  0  0999 V2000
   14.1220   -1.8820   20.5570 O   0  0  0  0  0  0  0  0  0  0  0  0
   13.6900   -2.1300   21.6690 C   0  0  0  0  0  0  0  0  0  0  0  0
   13.1420   -1.2000   22.5070 N   0  0  0  0  0  0  0  0  0  0  0  0
   13.0370    0.2200   22.2010 C   0  0  0  0  0  0  0  0  0  0  0  0
   11.7400    0.7770   22.7430 C   0  0  0  0  0  0  0  0  0  0  0  0
   10.5190    0.2350   22.3130 C   0  0  0  0  0  0  0  0  0  0  0  0
    9.3110    0.7390   22.8160 C   0  0  0  0  0  0  0  0  0  0  0  0
   11.7460    1.8350   23.6640 C   0  0  0  0  0  0  0  0  0  0  0  0
   10.5380    2.3280   24.1830 C   0  0  0  0  0  0  0  0  0  0  0  0
    8.0750    0.2740   22.3270 N   0  0  0  0  0  0  0  0  0  0  0  0
    9.3200    1.7720   23.7610 C   0  0  0  0  0  0  0  0  0  0  0  0
    7.7280    0.2660   21.0060 C   0  0  0  0  0  0  0  0  0  0  0  0
    8.5150    0.4080   20.0900 O   0  0  0  0  0  0  0  0  0  0  0  0
    6.3790    0.1600   20.8160 N   0  0  0  0  0  0  0  0  0  0  0  0
    5.7180    0.6170   19.6540 C   0  0  0  0  0  0  0  0  0  0  0  0
    6.1350    0.2490   18.3560 C   0  0  0  0  0  0  0  0  0  0  0  0
    4.7200    1.5880   19.8000 C   0  0  0  0  0  0  0  0  0  0  0  0
    5.6250    0.7970   17.2330 N   0  0  0  0  0  0  0  0  0  0  0  0
    4.2050    2.1700   18.6370 C   0  0  0  0  0  0  0  0  0  0  0  0
    4.7020    1.7740   17.3880 C   0  0  0  0  0  0  0  0  0  0  0  0
  1  2  2  0
  2  3  1  0
  3  4  1  0
  4  5  1  0
  5  8  2  0
  5  6  1  0
  6  7  2  0
  7 10  1  0
  7 11  1  0
  8  9  1  0
  9 11  2  0
 10 12  1  0
 12 13  2  0
 12 14  1  0
 14 15  1  0
 15 16  2  0
 15 17  1  0
 16 18  1  0
 17 19  2  0
 18 20  2  0
 19 20  1  0
M  END
>  <original SMILES>  (565) 
O=CNCc1cccc(NC(=O)Nc2cccnc2)c1

>  <AutoDock Predicted Affinity>  (565) 
-5.18735

>  <ref_pdb>  (565) 
x0434_0

>  <ref_mols>  (565) 
x0434_0

>  <creator>  (565) 
Will Poole

>  <energy minimised>  (565) 
True

$$$$
WPC1763_minimised.pdb
     RDKit          3D

 21 22  0  0  0  0  0  0  0  0999 V2000
   12.2990    6.5840   25.2270 C   0  0  0  0  0  0  0  0  0  0  0  0
   11.8210    5.9700   24.3160 C   0  0  0  0  0  0  0  0  0  0  0  0
   11.1860    5.2070   23.2290 C   0  0  0  0  0  0  0  0  0  0  0  0
   10.1030    4.2430   23.7530 C   0  0  0  0  0  0  0  0  0  0  0  0
   10.6790    3.0130   24.4980 C   0  0  0  0  0  0  0  0  0  0  0  0
   10.7740    1.7750   23.6240 C   0  0  0  0  0  0  0  0  0  0  0  0
   12.0090    1.2720   23.1780 C   0  0  0  0  0  0  0  0  0  0  0  0
   12.0500    0.1350   22.3500 C   0  0  0  0  0  0  0  0  0  0  0  0
   10.8550   -0.4950   21.9610 C   0  0  0  0  0  0  0  0  0  0  0  0
    9.6250    0.0070   22.4140 C   0  0  0  0  0  0  0  0  0  0  0  0
    8.3960   -0.5090   21.9620 N   0  0  0  0  0  0  0  0  0  0  0  0
    7.9200   -0.2680   20.7050 C   0  0  0  0  0  0  0  0  0  0  0  0
    8.6220    0.0290   19.7600 O   0  0  0  0  0  0  0  0  0  0  0  0
    6.5550   -0.2950   20.6250 N   0  0  0  0  0  0  0  0  0  0  0  0
    5.8330    0.3090   19.5680 C   0  0  0  0  0  0  0  0  0  0  0  0
    4.8970    1.3060   19.8670 C   0  0  0  0  0  0  0  0  0  0  0  0
    4.3260    2.0070   18.7970 C   0  0  0  0  0  0  0  0  0  0  0  0
    4.7140    1.7030   17.4840 C   0  0  0  0  0  0  0  0  0  0  0  0
    5.5880    0.7150   17.1860 N   0  0  0  0  0  0  0  0  0  0  0  0
    6.1430    0.0470   18.2160 C   0  0  0  0  0  0  0  0  0  0  0  0
    9.5890    1.1260   23.2510 C   0  0  0  0  0  0  0  0  0  0  0  0
  1  2  3  0
  2  3  1  0
  3  4  1  0
  4  5  1  0
  5  6  1  0
  6 21  2  0
  6  7  1  0
  7  8  2  0
  8  9  1  0
  9 10  2  0
 10 11  1  0
 10 21  1  0
 11 12  1  0
 12 13  2  0
 12 14  1  0
 14 15  1  0
 15 16  2  0
 15 20  1  0
 16 17  1  0
 17 18  2  0
 18 19  1  0
 19 20  2  0
M  END
>  <original SMILES>  (566) 
C#CCCCc1cccc(NC(=O)Nc2cccnc2)c1

>  <AutoDock Predicted Affinity>  (566) 
-6.06186

>  <ref_pdb>  (566) 
x0434_0

>  <ref_mols>  (566) 
x0434_0

>  <creator>  (566) 
Will Poole

>  <energy minimised>  (566) 
True

$$$$
WPC1272_minimised.pdb
     RDKit          3D

 23 24  0  0  1  0  0  0  0  0999 V2000
   12.1110    6.7900   25.2440 C   0  0  0  0  0  0  0  0  0  0  0  0
   11.3860    6.2650   24.4450 C   0  0  0  0  0  0  0  0  0  0  0  0
   10.5630    5.5440   23.4580 C   0  0  0  0  0  0  0  0  0  0  0  0
   10.4970    4.0890   23.7060 N   0  0  0  0  0  0  0  0  0  0  0  0
   11.7850    3.4320   23.9920 C   0  0  2  0  0  0  0  0  0  0  0  0
   12.7940    3.6100   22.8430 C   0  0  0  0  0  0  0  0  0  0  0  0
   11.6200    1.9590   24.4270 C   0  0  0  0  0  0  0  0  0  0  0  0
   11.2230    0.9650   23.3570 C   0  0  0  0  0  0  0  0  0  0  0  0
   12.2020    0.1680   22.7350 C   0  0  0  0  0  0  0  0  0  0  0  0
   11.8240   -0.8510   21.8480 C   0  0  0  0  0  0  0  0  0  0  0  0
   10.4650   -1.0570   21.5730 C   0  0  0  0  0  0  0  0  0  0  0  0
    9.4930   -0.2360   22.1610 C   0  0  0  0  0  0  0  0  0  0  0  0
    8.1420   -0.3460   21.7890 N   0  0  0  0  0  0  0  0  0  0  0  0
    7.6980   -0.1420   20.5160 C   0  0  0  0  0  0  0  0  0  0  0  0
    8.4270   -0.0700   19.5460 O   0  0  0  0  0  0  0  0  0  0  0  0
    6.3470    0.0450   20.4480 N   0  0  0  0  0  0  0  0  0  0  0  0
    5.6690    0.6250   19.3530 C   0  0  0  0  0  0  0  0  0  0  0  0
    4.7200    1.6240   19.6010 C   0  0  0  0  0  0  0  0  0  0  0  0
    4.1750    2.2910   18.4980 C   0  0  0  0  0  0  0  0  0  0  0  0
    4.6170    1.9700   17.2070 C   0  0  0  0  0  0  0  0  0  0  0  0
    5.4940    0.9730   16.9560 N   0  0  0  0  0  0  0  0  0  0  0  0
    6.0090    0.3220   18.0170 C   0  0  0  0  0  0  0  0  0  0  0  0
    9.8680    0.7640   23.0630 C   0  0  0  0  0  0  0  0  0  0  0  0
  1  2  3  0
  2  3  1  0
  3  4  1  0
  4  5  1  0
  5  6  1  6
  5  7  1  0
  7  8  1  0
  8 23  2  0
  8  9  1  0
  9 10  2  0
 10 11  1  0
 11 12  2  0
 12 13  1  0
 12 23  1  0
 13 14  1  0
 14 15  2  0
 14 16  1  0
 16 17  1  0
 17 18  2  0
 17 22  1  0
 18 19  1  0
 19 20  2  0
 20 21  1  0
 21 22  2  0
M  END
>  <original SMILES>  (567) 
C#CCNC(C)Cc1cccc(NC(=O)Nc2cccnc2)c1

>  <AutoDock Predicted Affinity>  (567) 
-5.564757

>  <ref_pdb>  (567) 
x0434_0

>  <ref_mols>  (567) 
x0434_0

>  <creator>  (567) 
Will Poole

>  <energy minimised>  (567) 
True

$$$$
WPC1686_minimised.pdb
     RDKit          3D

 21 22  0  0  0  0  0  0  0  0999 V2000
   12.2640    6.5740   25.1820 C   0  0  0  0  0  0  0  0  0  0  0  0
   11.6920    5.9630   24.3250 C   0  0  0  0  0  0  0  0  0  0  0  0
   10.9490    5.1930   23.3160 C   0  0  0  0  0  0  0  0  0  0  0  0
   10.0000    4.2600   23.9420 N   0  0  0  0  0  0  0  0  0  0  0  0
   10.6200    3.1120   24.6270 C   0  0  0  0  0  0  0  0  0  0  0  0
   10.7410    1.9070   23.7140 C   0  0  0  0  0  0  0  0  0  0  0  0
   11.9870    1.4460   23.2480 C   0  0  0  0  0  0  0  0  0  0  0  0
   12.0520    0.3280   22.3960 C   0  0  0  0  0  0  0  0  0  0  0  0
   10.8700   -0.3230   21.9980 C   0  0  0  0  0  0  0  0  0  0  0  0
    9.6300    0.1370   22.4680 C   0  0  0  0  0  0  0  0  0  0  0  0
    8.4130   -0.4060   22.0140 N   0  0  0  0  0  0  0  0  0  0  0  0
    7.9480   -0.2130   20.7460 C   0  0  0  0  0  0  0  0  0  0  0  0
    8.6540    0.0740   19.8010 O   0  0  0  0  0  0  0  0  0  0  0  0
    6.5850   -0.2730   20.6520 N   0  0  0  0  0  0  0  0  0  0  0  0
    5.8620    0.3120   19.5870 C   0  0  0  0  0  0  0  0  0  0  0  0
    4.9220    1.3100   19.8730 C   0  0  0  0  0  0  0  0  0  0  0  0
    4.3530    1.9990   18.7940 C   0  0  0  0  0  0  0  0  0  0  0  0
    4.7480    1.6840   17.4860 C   0  0  0  0  0  0  0  0  0  0  0  0
    5.6230    0.6940   17.2000 N   0  0  0  0  0  0  0  0  0  0  0  0
    6.1750    0.0360   18.2390 C   0  0  0  0  0  0  0  0  0  0  0  0
    9.5700    1.2370   23.3300 C   0  0  0  0  0  0  0  0  0  0  0  0
  1  2  3  0
  2  3  1  0
  3  4  1  0
  4  5  1  0
  5  6  1  0
  6 21  2  0
  6  7  1  0
  7  8  2  0
  8  9  1  0
  9 10  2  0
 10 11  1  0
 10 21  1  0
 11 12  1  0
 12 13  2  0
 12 14  1  0
 14 15  1  0
 15 16  2  0
 15 20  1  0
 16 17  1  0
 17 18  2  0
 18 19  1  0
 19 20  2  0
M  END
>  <original SMILES>  (568) 
C#CCNCc1cccc(NC(=O)Nc2cccnc2)c1

>  <AutoDock Predicted Affinity>  (568) 
-5.80512

>  <ref_pdb>  (568) 
x0434_0

>  <ref_mols>  (568) 
x0434_0

>  <creator>  (568) 
Will Poole

>  <energy minimised>  (568) 
True

$$$$
WPC2189_minimised.pdb
     RDKit          3D

 23 24  0  0  0  0  0  0  0  0999 V2000
    7.7710    4.9060   21.9960 C   0  0  0  0  0  0  0  0  0  0  0  0
    8.7240    5.1780   22.6690 C   0  0  0  0  0  0  0  0  0  0  0  0
    9.9220    5.5320   23.4350 C   0  0  0  0  0  0  0  0  0  0  0  0
   11.1240    4.8970   22.8700 N   0  0  0  0  0  0  0  0  0  0  0  0
   11.6010    3.7280   23.3960 N   0  0  0  0  0  0  0  0  0  0  0  0
   10.9590    2.9470   24.1940 C   0  0  0  0  0  0  0  0  0  0  0  0
   11.4810    1.5740   24.5270 C   0  0  0  0  0  0  0  0  0  0  0  0
   11.1100    0.5460   23.4840 C   0  0  0  0  0  0  0  0  0  0  0  0
   12.1020   -0.1640   22.7860 C   0  0  0  0  0  0  0  0  0  0  0  0
   11.7350   -1.1530   21.8610 C   0  0  0  0  0  0  0  0  0  0  0  0
   10.3770   -1.3930   21.6020 C   0  0  0  0  0  0  0  0  0  0  0  0
    9.3930   -0.6320   22.2440 C   0  0  0  0  0  0  0  0  0  0  0  0
    8.0520   -0.6970   21.8240 N   0  0  0  0  0  0  0  0  0  0  0  0
    7.6510   -0.2900   20.5830 C   0  0  0  0  0  0  0  0  0  0  0  0
    8.4110   -0.0540   19.6640 O   0  0  0  0  0  0  0  0  0  0  0  0
    6.2990   -0.1120   20.4890 N   0  0  0  0  0  0  0  0  0  0  0  0
    5.6570    0.5420   19.4120 C   0  0  0  0  0  0  0  0  0  0  0  0
    4.7180    1.5460   19.6810 C   0  0  0  0  0  0  0  0  0  0  0  0
    4.2140    2.2710   18.5940 C   0  0  0  0  0  0  0  0  0  0  0  0
    4.6780    1.9950   17.3000 C   0  0  0  0  0  0  0  0  0  0  0  0
    5.5500    0.9990   17.0300 N   0  0  0  0  0  0  0  0  0  0  0  0
    6.0280    0.2960   18.0740 C   0  0  0  0  0  0  0  0  0  0  0  0
    9.7560    0.3150   23.2050 C   0  0  0  0  0  0  0  0  0  0  0  0
  1  2  3  0
  2  3  1  0
  3  4  1  0
  4  5  1  0
  5  6  2  0
  6  7  1  0
  7  8  1  0
  8 23  2  0
  8  9  1  0
  9 10  2  0
 10 11  1  0
 11 12  2  0
 12 13  1  0
 12 23  1  0
 13 14  1  0
 14 15  2  0
 14 16  1  0
 16 17  1  0
 17 18  2  0
 17 22  1  0
 18 19  1  0
 19 20  2  0
 20 21  1  0
 21 22  2  0
M  END
>  <original SMILES>  (569) 
C#CCNN=CCc1cccc(NC(=O)Nc2cccnc2)c1

>  <AutoDock Predicted Affinity>  (569) 
-6.04406

>  <ref_pdb>  (569) 
x0434_0

>  <ref_mols>  (569) 
x0434_0

>  <creator>  (569) 
Will Poole

>  <energy minimised>  (569) 
True

$$$$
WPC1384_minimised.pdb
     RDKit          3D

 23 25  0  0  0  0  0  0  0  0999 V2000
    8.9800    3.7180   22.3630 C   0  0  0  0  0  0  0  0  0  0  0  0
    9.7700    4.5780   23.0130 C   0  0  0  0  0  0  0  0  0  0  0  0
    9.3550    6.0200   23.1260 C   0  0  0  0  0  0  0  0  0  0  0  0
   11.0910    4.2210   23.6280 C   0  0  0  0  0  0  0  0  0  0  0  0
   11.0360    2.8230   24.8260 S   0  0  0  0  0  0  0  0  0  0  0  0
   11.1020    1.3490   23.8340 C   0  0  0  0  0  0  0  0  0  0  0  0
   12.3030    0.8850   23.2720 C   0  0  0  0  0  0  0  0  0  0  0  0
   12.2830   -0.1920   22.3690 C   0  0  0  0  0  0  0  0  0  0  0  0
   11.0590   -0.7890   22.0200 C   0  0  0  0  0  0  0  0  0  0  0  0
    9.8670   -0.3330   22.6030 C   0  0  0  0  0  0  0  0  0  0  0  0
    8.6110   -0.7390   22.1170 N   0  0  0  0  0  0  0  0  0  0  0  0
    8.1260   -0.3000   20.9150 C   0  0  0  0  0  0  0  0  0  0  0  0
    8.8140    0.1930   20.0460 O   0  0  0  0  0  0  0  0  0  0  0  0
    6.7660   -0.3870   20.7920 N   0  0  0  0  0  0  0  0  0  0  0  0
    6.0520    0.2400   19.7420 C   0  0  0  0  0  0  0  0  0  0  0  0
    5.1240    1.2460   20.0410 C   0  0  0  0  0  0  0  0  0  0  0  0
    4.5700    1.9610   18.9690 C   0  0  0  0  0  0  0  0  0  0  0  0
    4.9580    1.6560   17.6560 C   0  0  0  0  0  0  0  0  0  0  0  0
    5.8220    0.6600   17.3590 N   0  0  0  0  0  0  0  0  0  0  0  0
    6.3690   -0.0140   18.3900 C   0  0  0  0  0  0  0  0  0  0  0  0
    9.8990    0.6990   23.5450 C   0  0  0  0  0  0  0  0  0  0  0  0
   12.1070    5.2630   24.0530 C   0  0  0  0  0  0  0  0  0  0  0  0
   12.4010    4.3530   22.8870 C   0  0  0  0  0  0  0  0  0  0  0  0
  1  2  2  0
  2  3  1  0
  2  4  1  0
  4 22  1  0
  4  5  1  0
  4 23  1  0
  5  6  1  0
  6 21  1  0
  6  7  2  0
  7  8  1  0
  8  9  2  0
  9 10  1  0
 10 11  1  0
 10 21  2  0
 11 12  1  0
 12 13  2  0
 12 14  1  0
 14 15  1  0
 15 16  2  0
 15 20  1  0
 16 17  1  0
 17 18  2  0
 18 19  1  0
 19 20  2  0
 22 23  1  0
M  END
>  <original SMILES>  (570) 
C=C(C)C1(Sc2cccc(NC(=O)Nc3cccnc3)c2)CC1

>  <AutoDock Predicted Affinity>  (570) 
-5.256952

>  <ref_pdb>  (570) 
x0434_0

>  <ref_mols>  (570) 
x0434_0

>  <creator>  (570) 
Will Poole

>  <energy minimised>  (570) 
True

$$$$
WPC1193_minimised.pdb
     RDKit          3D

 24 25  0  0  0  0  0  0  0  0999 V2000
   13.7310    5.5380   21.9970 C   0  0  0  0  0  0  0  0  0  0  0  0
   12.6960    4.8390   22.4710 C   0  0  0  0  0  0  0  0  0  0  0  0
   11.9080    5.1900   23.7100 C   0  0  0  0  0  0  0  0  0  0  0  0
   10.6700    4.3810   23.7570 N   0  0  0  0  0  0  0  0  0  0  0  0
   10.8180    3.1140   24.5130 C   0  0  0  0  0  0  0  0  0  0  0  0
   10.8670    1.8700   23.6350 C   0  0  0  0  0  0  0  0  0  0  0  0
   12.0940    1.3680   23.1590 C   0  0  0  0  0  0  0  0  0  0  0  0
   12.1240    0.2280   22.3360 C   0  0  0  0  0  0  0  0  0  0  0  0
   10.9250   -0.4040   21.9660 C   0  0  0  0  0  0  0  0  0  0  0  0
    9.7040    0.0850   22.4550 C   0  0  0  0  0  0  0  0  0  0  0  0
    8.4670   -0.4240   22.0150 N   0  0  0  0  0  0  0  0  0  0  0  0
    8.0010   -0.2240   20.7470 C   0  0  0  0  0  0  0  0  0  0  0  0
    8.7090    0.0060   19.7880 O   0  0  0  0  0  0  0  0  0  0  0  0
    6.6360   -0.2130   20.6690 N   0  0  0  0  0  0  0  0  0  0  0  0
    5.9210    0.3740   19.5980 C   0  0  0  0  0  0  0  0  0  0  0  0
    4.9980    1.3900   19.8770 C   0  0  0  0  0  0  0  0  0  0  0  0
    4.4190    2.0610   18.7920 C   0  0  0  0  0  0  0  0  0  0  0  0
    4.7930    1.7160   17.4850 C   0  0  0  0  0  0  0  0  0  0  0  0
    5.6540    0.7110   17.2080 N   0  0  0  0  0  0  0  0  0  0  0  0
    6.2130    0.0680   18.2520 C   0  0  0  0  0  0  0  0  0  0  0  0
    9.6800    1.1930   23.3080 C   0  0  0  0  0  0  0  0  0  0  0  0
    9.4680    4.8150   23.2580 C   0  0  0  0  0  0  0  0  0  0  0  0
    8.4030    4.1660   23.2750 N   0  0  0  0  0  0  0  0  0  0  0  0
    9.5260    5.8630   22.4510 N   0  0  0  0  0  0  0  0  0  0  0  0
  1  2  2  0
  2  3  1  0
  3  4  1  0
  4 22  1  0
  4  5  1  0
  5  6  1  0
  6 21  2  0
  6  7  1  0
  7  8  2  0
  8  9  1  0
  9 10  2  0
 10 11  1  0
 10 21  1  0
 11 12  1  0
 12 13  2  0
 12 14  1  0
 14 15  1  0
 15 16  2  0
 15 20  1  0
 16 17  1  0
 17 18  2  0
 18 19  1  0
 19 20  2  0
 22 23  2  0
 22 24  1  0
M  END
>  <original SMILES>  (571) 
C=CCN(Cc1cccc(NC(=O)Nc2cccnc2)c1)C(=N)N

>  <AutoDock Predicted Affinity>  (571) 
-6.17994

>  <ref_pdb>  (571) 
x0434_0

>  <ref_mols>  (571) 
x0434_0

>  <creator>  (571) 
Will Poole

>  <energy minimised>  (571) 
True

$$$$
WPC2275_minimised.pdb
     RDKit          3D

 24 25  0  0  0  0  0  0  0  0999 V2000
   14.3330    6.8630   21.4490 C   0  0  0  0  0  0  0  0  0  0  0  0
   14.1580    5.5430   21.4320 C   0  0  0  0  0  0  0  0  0  0  0  0
   13.7140    4.7570   22.6330 C   0  0  0  0  0  0  0  0  0  0  0  0
   12.2630    4.6020   22.5840 N   0  0  0  0  0  0  0  0  0  0  0  0
   11.4130    5.1790   23.4910 C   0  0  0  0  0  0  0  0  0  0  0  0
   11.7190    6.1410   24.1720 O   0  0  0  0  0  0  0  0  0  0  0  0
   10.1100    4.4410   23.6910 C   0  0  0  0  0  0  0  0  0  0  0  0
   10.4430    3.0410   24.8410 S   0  0  0  0  0  0  0  0  0  0  0  0
   10.6670    1.6490   23.7670 C   0  0  0  0  0  0  0  0  0  0  0  0
   11.9400    1.2050   23.3730 C   0  0  0  0  0  0  0  0  0  0  0  0
   12.0580    0.1050   22.5030 C   0  0  0  0  0  0  0  0  0  0  0  0
   10.9020   -0.5430   22.0290 C   0  0  0  0  0  0  0  0  0  0  0  0
    9.6360   -0.0980   22.4410 C   0  0  0  0  0  0  0  0  0  0  0  0
    8.4470   -0.6420   21.9220 N   0  0  0  0  0  0  0  0  0  0  0  0
    7.9730   -0.3080   20.6880 C   0  0  0  0  0  0  0  0  0  0  0  0
    8.6660    0.1290   19.7940 O   0  0  0  0  0  0  0  0  0  0  0  0
    6.6140   -0.4100   20.5770 N   0  0  0  0  0  0  0  0  0  0  0  0
    5.8840    0.2250   19.5460 C   0  0  0  0  0  0  0  0  0  0  0  0
    4.9510    1.2170   19.8750 C   0  0  0  0  0  0  0  0  0  0  0  0
    4.3810    1.9490   18.8240 C   0  0  0  0  0  0  0  0  0  0  0  0
    4.7700    1.6820   17.5030 C   0  0  0  0  0  0  0  0  0  0  0  0
    5.6430    0.7020   17.1780 N   0  0  0  0  0  0  0  0  0  0  0  0
    6.1960    0.0030   18.1890 C   0  0  0  0  0  0  0  0  0  0  0  0
    9.5220    0.9910   23.3090 C   0  0  0  0  0  0  0  0  0  0  0  0
  1  2  2  0
  2  3  1  0
  3  4  1  0
  4  5  1  0
  5  6  2  0
  5  7  1  0
  7  8  1  0
  8  9  1  0
  9 24  2  0
  9 10  1  0
 10 11  2  0
 11 12  1  0
 12 13  2  0
 13 14  1  0
 13 24  1  0
 14 15  1  0
 15 16  2  0
 15 17  1  0
 17 18  1  0
 18 19  2  0
 18 23  1  0
 19 20  1  0
 20 21  2  0
 21 22  1  0
 22 23  2  0
M  END
>  <original SMILES>  (572) 
C=CCNC(=O)CSc1cccc(NC(=O)Nc2cccnc2)c1

>  <AutoDock Predicted Affinity>  (572) 
-5.003981

>  <ref_pdb>  (572) 
x0434_0

>  <ref_mols>  (572) 
x0434_0

>  <creator>  (572) 
Will Poole

>  <energy minimised>  (572) 
True

$$$$
WPC2523_minimised.pdb
     RDKit          3D

 23 24  0  0  1  0  0  0  0  0999 V2000
   11.6740    6.4180   24.6500 C   0  0  0  0  0  0  0  0  0  0  0  0
   10.7260    5.9620   23.8190 C   0  0  0  0  0  0  0  0  0  0  0  0
    9.8810    4.7470   24.0840 C   0  0  0  0  0  0  0  0  0  0  0  0
   10.4340    3.5690   23.4190 N   0  0  0  0  0  0  0  0  0  0  0  0
   11.7740    3.1760   23.8820 C   0  0  2  0  0  0  0  0  0  0  0  0
   12.8330    3.5840   22.8460 C   0  0  0  0  0  0  0  0  0  0  0  0
   11.8420    1.6840   24.2810 C   0  0  0  0  0  0  0  0  0  0  0  0
   11.4230    0.6720   23.2360 C   0  0  0  0  0  0  0  0  0  0  0  0
   12.3800   -0.1090   22.5650 C   0  0  0  0  0  0  0  0  0  0  0  0
   11.9650   -1.1400   21.7090 C   0  0  0  0  0  0  0  0  0  0  0  0
   10.5950   -1.3710   21.5120 C   0  0  0  0  0  0  0  0  0  0  0  0
    9.6450   -0.5550   22.1380 C   0  0  0  0  0  0  0  0  0  0  0  0
    8.2800   -0.6600   21.8160 N   0  0  0  0  0  0  0  0  0  0  0  0
    7.7880   -0.3680   20.5770 C   0  0  0  0  0  0  0  0  0  0  0  0
    8.4840   -0.2240   19.5900 O   0  0  0  0  0  0  0  0  0  0  0  0
    6.4320   -0.1920   20.5580 N   0  0  0  0  0  0  0  0  0  0  0  0
    5.7240    0.4230   19.4980 C   0  0  0  0  0  0  0  0  0  0  0  0
    4.7980    1.4310   19.7960 C   0  0  0  0  0  0  0  0  0  0  0  0
    4.2300    2.1310   18.7240 C   0  0  0  0  0  0  0  0  0  0  0  0
    4.6190    1.8250   17.4120 C   0  0  0  0  0  0  0  0  0  0  0  0
    5.4720    0.8190   17.1150 N   0  0  0  0  0  0  0  0  0  0  0  0
    6.0150    0.1440   18.1460 C   0  0  0  0  0  0  0  0  0  0  0  0
   10.0570    0.4500   23.0150 C   0  0  0  0  0  0  0  0  0  0  0  0
  1  2  2  0
  2  3  1  0
  3  4  1  0
  4  5  1  0
  5  6  1  6
  5  7  1  0
  7  8  1  0
  8 23  2  0
  8  9  1  0
  9 10  2  0
 10 11  1  0
 11 12  2  0
 12 13  1  0
 12 23  1  0
 13 14  1  0
 14 15  2  0
 14 16  1  0
 16 17  1  0
 17 18  2  0
 17 22  1  0
 18 19  1  0
 19 20  2  0
 20 21  1  0
 21 22  2  0
M  END
>  <original SMILES>  (573) 
C=CCNC(C)Cc1cccc(NC(=O)Nc2cccnc2)c1

>  <AutoDock Predicted Affinity>  (573) 
-5.700125

>  <ref_pdb>  (573) 
x0434_0

>  <ref_mols>  (573) 
x0434_0

>  <creator>  (573) 
Will Poole

>  <energy minimised>  (573) 
True

$$$$
WPC1613_minimised.pdb
     RDKit          3D

 22 23  0  0  0  0  0  0  0  0999 V2000
   14.3690    5.8000   21.5010 C   0  0  0  0  0  0  0  0  0  0  0  0
   13.2220    5.2080   21.8300 C   0  0  0  0  0  0  0  0  0  0  0  0
   12.5570    5.3020   23.1740 C   0  0  0  0  0  0  0  0  0  0  0  0
   11.1030    5.2360   22.9850 N   0  0  0  0  0  0  0  0  0  0  0  0
   10.2900    4.8050   24.1330 C   0  0  0  0  0  0  0  0  0  0  0  0
   10.7220    3.4520   24.7480 C   0  0  0  0  0  0  0  0  0  0  0  0
   10.7300    2.2590   23.8060 C   0  0  0  0  0  0  0  0  0  0  0  0
   11.9390    1.6800   23.3750 C   0  0  0  0  0  0  0  0  0  0  0  0
   11.9280    0.5440   22.5480 C   0  0  0  0  0  0  0  0  0  0  0  0
   10.7050   -0.0120   22.1390 C   0  0  0  0  0  0  0  0  0  0  0  0
    9.5000    0.5610   22.5750 C   0  0  0  0  0  0  0  0  0  0  0  0
    8.2550    0.0760   22.1330 N   0  0  0  0  0  0  0  0  0  0  0  0
    7.8550    0.1020   20.8300 C   0  0  0  0  0  0  0  0  0  0  0  0
    8.6090    0.2380   19.8870 O   0  0  0  0  0  0  0  0  0  0  0  0
    6.4960    0.0530   20.6940 N   0  0  0  0  0  0  0  0  0  0  0  0
    5.8090    0.5490   19.5640 C   0  0  0  0  0  0  0  0  0  0  0  0
    4.8340    1.5350   19.7590 C   0  0  0  0  0  0  0  0  0  0  0  0
    4.2890    2.1450   18.6240 C   0  0  0  0  0  0  0  0  0  0  0  0
    4.7470    1.7740   17.3530 C   0  0  0  0  0  0  0  0  0  0  0  0
    5.6490    0.7870   17.1520 N   0  0  0  0  0  0  0  0  0  0  0  0
    6.1770    0.2010   18.2470 C   0  0  0  0  0  0  0  0  0  0  0  0
    9.5140    1.6850   23.4090 C   0  0  0  0  0  0  0  0  0  0  0  0
  1  2  2  0
  2  3  1  0
  3  4  1  0
  4  5  1  0
  5  6  1  0
  6  7  1  0
  7 22  2  0
  7  8  1  0
  8  9  2  0
  9 10  1  0
 10 11  2  0
 11 12  1  0
 11 22  1  0
 12 13  1  0
 13 14  2  0
 13 15  1  0
 15 16  1  0
 16 17  2  0
 16 21  1  0
 17 18  1  0
 18 19  2  0
 19 20  1  0
 20 21  2  0
M  END
>  <original SMILES>  (574) 
C=CCNCCc1cccc(NC(=O)Nc2cccnc2)c1

>  <AutoDock Predicted Affinity>  (574) 
-5.535034

>  <ref_pdb>  (574) 
x0434_0

>  <ref_mols>  (574) 
x0434_0

>  <creator>  (574) 
Will Poole

>  <energy minimised>  (574) 
True

$$$$
WPC2554_minimised.pdb
     RDKit          3D

 21 22  0  0  0  0  0  0  0  0999 V2000
   12.1620    5.9630   24.3660 C   0  0  0  0  0  0  0  0  0  0  0  0
   11.6240    5.1700   23.4330 C   0  0  0  0  0  0  0  0  0  0  0  0
   11.9210    3.6960   23.3190 C   0  0  0  0  0  0  0  0  0  0  0  0
   11.2640    3.0140   24.4380 N   0  0  0  0  0  0  0  0  0  0  0  0
   11.6320    1.6050   24.6320 C   0  0  0  0  0  0  0  0  0  0  0  0
   11.2180    0.6870   23.5060 C   0  0  0  0  0  0  0  0  0  0  0  0
   12.1890   -0.0130   22.7670 C   0  0  0  0  0  0  0  0  0  0  0  0
   11.7950   -0.9700   21.8200 C   0  0  0  0  0  0  0  0  0  0  0  0
   10.4300   -1.1910   21.5870 C   0  0  0  0  0  0  0  0  0  0  0  0
    9.4640   -0.4380   22.2680 C   0  0  0  0  0  0  0  0  0  0  0  0
    8.1080   -0.5180   21.9010 N   0  0  0  0  0  0  0  0  0  0  0  0
    7.6600   -0.2180   20.6460 C   0  0  0  0  0  0  0  0  0  0  0  0
    8.3900   -0.0560   19.6870 O   0  0  0  0  0  0  0  0  0  0  0  0
    6.3040   -0.0610   20.5780 N   0  0  0  0  0  0  0  0  0  0  0  0
    5.6290    0.5370   19.4880 C   0  0  0  0  0  0  0  0  0  0  0  0
    4.6900    1.5450   19.7420 C   0  0  0  0  0  0  0  0  0  0  0  0
    4.1560    2.2270   18.6410 C   0  0  0  0  0  0  0  0  0  0  0  0
    4.5880    1.9020   17.3480 C   0  0  0  0  0  0  0  0  0  0  0  0
    5.4560    0.8970   17.0920 N   0  0  0  0  0  0  0  0  0  0  0  0
    5.9670    0.2390   18.1510 C   0  0  0  0  0  0  0  0  0  0  0  0
    9.8540    0.4800   23.2470 C   0  0  0  0  0  0  0  0  0  0  0  0
  1  2  2  0
  2  3  1  0
  3  4  1  0
  4  5  1  0
  5  6  1  0
  6 21  2  0
  6  7  1  0
  7  8  2  0
  8  9  1  0
  9 10  2  0
 10 11  1  0
 10 21  1  0
 11 12  1  0
 12 13  2  0
 12 14  1  0
 14 15  1  0
 15 16  2  0
 15 20  1  0
 16 17  1  0
 17 18  2  0
 18 19  1  0
 19 20  2  0
M  END
>  <original SMILES>  (575) 
C=CCNCc1cccc(NC(=O)Nc2cccnc2)c1

>  <AutoDock Predicted Affinity>  (575) 
-5.535

>  <ref_pdb>  (575) 
x0434_0

>  <ref_mols>  (575) 
x0434_0

>  <creator>  (575) 
Will Poole

>  <energy minimised>  (575) 
True

$$$$
WPC1324_minimised.pdb
     RDKit          3D

 24 25  0  0  0  0  0  0  0  0999 V2000
    8.1480    3.3890   21.8330 C   0  0  0  0  0  0  0  0  0  0  0  0
    7.8600    4.6570   22.1410 C   0  0  0  0  0  0  0  0  0  0  0  0
    8.8430    5.7580   22.5140 C   0  0  0  0  0  0  0  0  0  0  0  0
   10.2000    5.3100   22.4480 O   0  0  0  0  0  0  0  0  0  0  0  0
   10.6970    4.5290   23.4290 C   0  0  0  0  0  0  0  0  0  0  0  0
   10.2770    4.4530   24.5680 O   0  0  0  0  0  0  0  0  0  0  0  0
   11.6490    3.7250   22.8720 N   0  0  0  0  0  0  0  0  0  0  0  0
   12.2740    2.5910   23.5610 C   0  0  0  0  0  0  0  0  0  0  0  0
   11.8480    1.2440   23.0070 C   0  0  0  0  0  0  0  0  0  0  0  0
   12.7980    0.3330   22.5090 C   0  0  0  0  0  0  0  0  0  0  0  0
   12.3790   -0.8740   21.9240 C   0  0  0  0  0  0  0  0  0  0  0  0
   11.0080   -1.1630   21.8220 C   0  0  0  0  0  0  0  0  0  0  0  0
   10.0620   -0.2620   22.3320 C   0  0  0  0  0  0  0  0  0  0  0  0
    8.6870   -0.4410   22.0760 N   0  0  0  0  0  0  0  0  0  0  0  0
    8.1290   -0.1620   20.8580 C   0  0  0  0  0  0  0  0  0  0  0  0
    8.7850    0.0740   19.8640 O   0  0  0  0  0  0  0  0  0  0  0  0
    6.7610   -0.1070   20.8450 N   0  0  0  0  0  0  0  0  0  0  0  0
    6.0100    0.4310   19.7680 C   0  0  0  0  0  0  0  0  0  0  0  0
    5.0700    1.4370   20.0270 C   0  0  0  0  0  0  0  0  0  0  0  0
    4.4740    2.0720   18.9290 C   0  0  0  0  0  0  0  0  0  0  0  0
    4.8400    1.6980   17.6270 C   0  0  0  0  0  0  0  0  0  0  0  0
    5.7050    0.6920   17.3680 N   0  0  0  0  0  0  0  0  0  0  0  0
    6.2810    0.0850   18.4250 C   0  0  0  0  0  0  0  0  0  0  0  0
   10.4840    0.9170   22.9580 C   0  0  0  0  0  0  0  0  0  0  0  0
  1  2  2  0
  2  3  1  0
  3  4  1  0
  4  5  1  0
  5  6  2  0
  5  7  1  0
  7  8  1  0
  8  9  1  0
  9 24  2  0
  9 10  1  0
 10 11  2  0
 11 12  1  0
 12 13  2  0
 13 14  1  0
 13 24  1  0
 14 15  1  0
 15 16  2  0
 15 17  1  0
 17 18  1  0
 18 19  2  0
 18 23  1  0
 19 20  1  0
 20 21  2  0
 21 22  1  0
 22 23  2  0
M  END
>  <original SMILES>  (576) 
C=CCOC(=O)NCc1cccc(NC(=O)Nc2cccnc2)c1

>  <AutoDock Predicted Affinity>  (576) 
-6.01338

>  <ref_pdb>  (576) 
x0434_0

>  <ref_mols>  (576) 
x0434_0

>  <creator>  (576) 
Will Poole

>  <energy minimised>  (576) 
True

$$$$
WPC1102_minimised.pdb
     RDKit          3D

 24 25  0  0  0  0  0  0  0  0999 V2000
    6.3240    4.1560   21.9440 C   0  0  0  0  0  0  0  0  0  0  0  0
    7.5930    4.5350   22.1260 C   0  0  0  0  0  0  0  0  0  0  0  0
    8.6170    3.6950   22.8440 C   0  0  0  0  0  0  0  0  0  0  0  0
    9.4230    4.5070   23.7210 O   0  0  0  0  0  0  0  0  0  0  0  0
   10.4410    3.6980   24.2910 N   0  0  0  0  0  0  0  0  0  0  0  0
   11.5870    3.4400   23.5570 C   0  0  0  0  0  0  0  0  0  0  0  0
   12.0360    4.2150   22.7360 O   0  0  0  0  0  0  0  0  0  0  0  0
   12.2720    2.1120   23.8780 C   0  0  0  0  0  0  0  0  0  0  0  0
   11.7420    0.9150   23.1050 C   0  0  0  0  0  0  0  0  0  0  0  0
   12.6350    0.0520   22.4450 C   0  0  0  0  0  0  0  0  0  0  0  0
   12.1490   -1.0600   21.7380 C   0  0  0  0  0  0  0  0  0  0  0  0
   10.7670   -1.2900   21.6620 C   0  0  0  0  0  0  0  0  0  0  0  0
    9.8740   -0.4190   22.2960 C   0  0  0  0  0  0  0  0  0  0  0  0
    8.4890   -0.5040   22.0410 N   0  0  0  0  0  0  0  0  0  0  0  0
    7.9460   -0.1580   20.8320 C   0  0  0  0  0  0  0  0  0  0  0  0
    8.6150    0.0930   19.8510 O   0  0  0  0  0  0  0  0  0  0  0  0
    6.5790   -0.0720   20.8110 N   0  0  0  0  0  0  0  0  0  0  0  0
    5.8480    0.4640   19.7200 C   0  0  0  0  0  0  0  0  0  0  0  0
    4.8990    1.4670   19.9560 C   0  0  0  0  0  0  0  0  0  0  0  0
    4.3300    2.1010   18.8440 C   0  0  0  0  0  0  0  0  0  0  0  0
    4.7210    1.7190   17.5520 C   0  0  0  0  0  0  0  0  0  0  0  0
    5.5880    0.7100   17.3140 N   0  0  0  0  0  0  0  0  0  0  0  0
    6.1480    0.1140   18.3850 C   0  0  0  0  0  0  0  0  0  0  0  0
   10.3640    0.6490   23.0540 C   0  0  0  0  0  0  0  0  0  0  0  0
  1  2  2  0
  2  3  1  0
  3  4  1  0
  4  5  1  0
  5  6  1  0
  6  7  2  0
  6  8  1  0
  8  9  1  0
  9 24  2  0
  9 10  1  0
 10 11  2  0
 11 12  1  0
 12 13  2  0
 13 14  1  0
 13 24  1  0
 14 15  1  0
 15 16  2  0
 15 17  1  0
 17 18  1  0
 18 19  2  0
 18 23  1  0
 19 20  1  0
 20 21  2  0
 21 22  1  0
 22 23  2  0
M  END
>  <original SMILES>  (577) 
C=CCONC(=O)Cc1cccc(NC(=O)Nc2cccnc2)c1

>  <AutoDock Predicted Affinity>  (577) 
-5.765758

>  <ref_pdb>  (577) 
x0434_0

>  <ref_mols>  (577) 
x0434_0

>  <creator>  (577) 
Will Poole

>  <energy minimised>  (577) 
True

$$$$
WPC2557_minimised.pdb
     RDKit          3D

 24 25  0  0  0  0  0  0  0  0999 V2000
    7.1980    4.0860   21.9800 C   0  0  0  0  0  0  0  0  0  0  0  0
    8.4940    4.2440   22.2620 C   0  0  0  0  0  0  0  0  0  0  0  0
    9.1440    5.5310   22.7310 C   0  0  0  0  0  0  0  0  0  0  0  0
   10.0320    5.0490   24.2710 S   0  0  0  0  0  0  0  0  0  0  0  0
   11.5070    4.2530   23.6280 C   0  0  0  0  0  0  0  0  0  0  0  0
   12.5680    4.9640   22.5550 S   0  0  0  0  0  0  0  0  0  0  0  0
   11.6490    3.0110   24.2070 N   0  0  0  0  0  0  0  0  0  0  0  0
   12.5720    1.9860   23.6960 C   0  0  0  0  0  0  0  0  0  0  0  0
   11.9060    0.8230   22.9820 C   0  0  0  0  0  0  0  0  0  0  0  0
   12.7290   -0.1550   22.3970 C   0  0  0  0  0  0  0  0  0  0  0  0
   12.1630   -1.2610   21.7490 C   0  0  0  0  0  0  0  0  0  0  0  0
   10.7690   -1.3840   21.6640 C   0  0  0  0  0  0  0  0  0  0  0  0
    9.9440   -0.3950   22.2130 C   0  0  0  0  0  0  0  0  0  0  0  0
    8.5540   -0.4250   21.9800 N   0  0  0  0  0  0  0  0  0  0  0  0
    8.0010   -0.0950   20.7750 C   0  0  0  0  0  0  0  0  0  0  0  0
    8.6590    0.1440   19.7850 O   0  0  0  0  0  0  0  0  0  0  0  0
    6.6350   -0.0120   20.7720 N   0  0  0  0  0  0  0  0  0  0  0  0
    5.8840    0.5180   19.6930 C   0  0  0  0  0  0  0  0  0  0  0  0
    4.9320    1.5140   19.9450 C   0  0  0  0  0  0  0  0  0  0  0  0
    4.3460    2.1460   18.8410 C   0  0  0  0  0  0  0  0  0  0  0  0
    4.7340    1.7810   17.5430 C   0  0  0  0  0  0  0  0  0  0  0  0
    5.6040    0.7780   17.2900 N   0  0  0  0  0  0  0  0  0  0  0  0
    6.1720    0.1740   18.3530 C   0  0  0  0  0  0  0  0  0  0  0  0
   10.5070    0.6980   22.8840 C   0  0  0  0  0  0  0  0  0  0  0  0
  1  2  2  0
  2  3  1  0
  3  4  1  0
  4  5  1  0
  5  6  2  0
  5  7  1  0
  7  8  1  0
  8  9  1  0
  9 24  2  0
  9 10  1  0
 10 11  2  0
 11 12  1  0
 12 13  2  0
 13 14  1  0
 13 24  1  0
 14 15  1  0
 15 16  2  0
 15 17  1  0
 17 18  1  0
 18 19  2  0
 18 23  1  0
 19 20  1  0
 20 21  2  0
 21 22  1  0
 22 23  2  0
M  END
>  <original SMILES>  (578) 
C=CCSC(=S)NCc1cccc(NC(=O)Nc2cccnc2)c1

>  <AutoDock Predicted Affinity>  (578) 
-5.47533

>  <ref_pdb>  (578) 
x0434_0

>  <ref_mols>  (578) 
x0434_0

>  <creator>  (578) 
Will Poole

>  <energy minimised>  (578) 
True

$$$$
WPC1231_minimised.pdb
     RDKit          3D

 19 20  0  0  0  0  0  0  0  0999 V2000
   12.8850    5.3910   23.5900 C   0  0  0  0  0  0  0  0  0  0  0  0
   12.0160    4.5730   22.9940 C   0  0  0  0  0  0  0  0  0  0  0  0
   10.9730    3.7480   23.7140 C   0  0  0  0  0  0  0  0  0  0  0  0
   10.9820    2.2870   23.2810 C   0  0  0  0  0  0  0  0  0  0  0  0
   12.1820    1.5690   23.1210 C   0  0  0  0  0  0  0  0  0  0  0  0
   12.1610    0.2500   22.6350 C   0  0  0  0  0  0  0  0  0  0  0  0
   10.9360   -0.3680   22.3280 C   0  0  0  0  0  0  0  0  0  0  0  0
    9.7380    0.3370   22.5160 C   0  0  0  0  0  0  0  0  0  0  0  0
    8.4960   -0.2070   22.1350 N   0  0  0  0  0  0  0  0  0  0  0  0
    8.0000   -0.0800   20.8690 C   0  0  0  0  0  0  0  0  0  0  0  0
    8.6870    0.1790   19.9030 O   0  0  0  0  0  0  0  0  0  0  0  0
    6.6380   -0.1790   20.7900 N   0  0  0  0  0  0  0  0  0  0  0  0
    5.8940    0.3400   19.7020 C   0  0  0  0  0  0  0  0  0  0  0  0
    4.9390    1.3330   19.9520 C   0  0  0  0  0  0  0  0  0  0  0  0
    4.3550    1.9690   18.8480 C   0  0  0  0  0  0  0  0  0  0  0  0
    4.7490    1.6060   17.5520 C   0  0  0  0  0  0  0  0  0  0  0  0
    5.6340    0.6160   17.3010 N   0  0  0  0  0  0  0  0  0  0  0  0
    6.2030    0.0110   18.3640 C   0  0  0  0  0  0  0  0  0  0  0  0
    9.7640    1.6550   22.9870 C   0  0  0  0  0  0  0  0  0  0  0  0
  1  2  2  0
  2  3  1  0
  3  4  1  0
  4 19  2  0
  4  5  1  0
  5  6  2  0
  6  7  1  0
  7  8  2  0
  8  9  1  0
  8 19  1  0
  9 10  1  0
 10 11  2  0
 10 12  1  0
 12 13  1  0
 13 14  2  0
 13 18  1  0
 14 15  1  0
 15 16  2  0
 16 17  1  0
 17 18  2  0
M  END
>  <original SMILES>  (579) 
C=CCc1cccc(NC(=O)Nc2cccnc2)c1

>  <AutoDock Predicted Affinity>  (579) 
-5.62043

>  <ref_pdb>  (579) 
x0434_0

>  <ref_mols>  (579) 
x0434_0

>  <creator>  (579) 
Will Poole

>  <energy minimised>  (579) 
True

$$$$
WPC1877_minimised.pdb
     RDKit          3D

 24 25  0  0  1  0  0  0  0  0999 V2000
    6.6020    3.7320   22.1130 C   0  0  0  0  0  0  0  0  0  0  0  0
    7.6510    4.5550   22.1390 C   0  0  0  0  0  0  0  0  0  0  0  0
    8.7540    4.2780   22.8890 O   0  0  0  0  0  0  0  0  0  0  0  0
    9.7070    5.2260   23.1350 C   0  0  0  0  0  0  0  0  0  0  0  0
    9.5300    6.4280   23.0040 O   0  0  0  0  0  0  0  0  0  0  0  0
   11.0400    4.6570   23.6910 C   0  0  2  0  0  0  0  0  0  0  0  0
   12.1450    4.6060   22.7010 N   0  0  0  0  0  0  0  0  0  0  0  0
   10.9240    3.3030   24.4400 C   0  0  0  0  0  0  0  0  0  0  0  0
   10.9150    2.0360   23.5910 C   0  0  0  0  0  0  0  0  0  0  0  0
   12.1180    1.4560   23.1440 C   0  0  0  0  0  0  0  0  0  0  0  0
   12.0980    0.2860   22.3660 C   0  0  0  0  0  0  0  0  0  0  0  0
   10.8710   -0.3080   22.0250 C   0  0  0  0  0  0  0  0  0  0  0  0
    9.6730    0.2590   22.4870 C   0  0  0  0  0  0  0  0  0  0  0  0
    8.4180   -0.2270   22.0760 N   0  0  0  0  0  0  0  0  0  0  0  0
    7.9630   -0.0880   20.7960 C   0  0  0  0  0  0  0  0  0  0  0  0
    8.6840    0.1050   19.8390 O   0  0  0  0  0  0  0  0  0  0  0  0
    6.5980   -0.1000   20.7030 N   0  0  0  0  0  0  0  0  0  0  0  0
    5.8890    0.4450   19.6070 C   0  0  0  0  0  0  0  0  0  0  0  0
    4.9250    1.4300   19.8510 C   0  0  0  0  0  0  0  0  0  0  0  0
    4.3670    2.0840   18.7470 C   0  0  0  0  0  0  0  0  0  0  0  0
    4.7930    1.7480   17.4540 C   0  0  0  0  0  0  0  0  0  0  0  0
    5.6850    0.7620   17.2070 N   0  0  0  0  0  0  0  0  0  0  0  0
    6.2290    0.1380   18.2710 C   0  0  0  0  0  0  0  0  0  0  0  0
    9.6990    1.4100   23.2830 C   0  0  0  0  0  0  0  0  0  0  0  0
  1  2  2  0
  2  3  1  0
  3  4  1  0
  4  5  2  0
  4  6  1  0
  6  7  1  6
  6  8  1  0
  8  9  1  0
  9 24  2  0
  9 10  1  0
 10 11  2  0
 11 12  1  0
 12 13  2  0
 13 14  1  0
 13 24  1  0
 14 15  1  0
 15 16  2  0
 15 17  1  0
 17 18  1  0
 18 19  2  0
 18 23  1  0
 19 20  1  0
 20 21  2  0
 21 22  1  0
 22 23  2  0
M  END
>  <original SMILES>  (580) 
C=COC(=O)C(N)Cc1cccc(NC(=O)Nc2cccnc2)c1

>  <AutoDock Predicted Affinity>  (580) 
-5.737435

>  <ref_pdb>  (580) 
x0434_0

>  <ref_mols>  (580) 
x0434_0

>  <creator>  (580) 
Will Poole

>  <energy minimised>  (580) 
True

$$$$
WPC1888_minimised.pdb
     RDKit          3D

 19 20  0  0  0  0  0  0  0  0999 V2000
   12.9930    5.1070   22.3650 C   0  0  0  0  0  0  0  0  0  0  0  0
   12.5700    5.3130   23.6150 C   0  0  0  0  0  0  0  0  0  0  0  0
   11.2100    4.4800   24.3120 S   0  0  0  0  0  0  0  0  0  0  0  0
   11.1610    2.8290   23.6210 C   0  0  0  0  0  0  0  0  0  0  0  0
   12.3290    2.0900   23.3510 C   0  0  0  0  0  0  0  0  0  0  0  0
   12.2400    0.7860   22.8360 C   0  0  0  0  0  0  0  0  0  0  0  0
   10.9820    0.2170   22.5770 C   0  0  0  0  0  0  0  0  0  0  0  0
    9.8170    0.9530   22.8410 C   0  0  0  0  0  0  0  0  0  0  0  0
    8.5490    0.4420   22.4920 N   0  0  0  0  0  0  0  0  0  0  0  0
    8.1040    0.3700   21.2020 C   0  0  0  0  0  0  0  0  0  0  0  0
    8.8300    0.5020   20.2380 O   0  0  0  0  0  0  0  0  0  0  0  0
    6.7500    0.2160   21.0760 N   0  0  0  0  0  0  0  0  0  0  0  0
    6.0320    0.5770   19.9100 C   0  0  0  0  0  0  0  0  0  0  0  0
    5.0210    1.5380   20.0250 C   0  0  0  0  0  0  0  0  0  0  0  0
    4.4520    2.0320   18.8460 C   0  0  0  0  0  0  0  0  0  0  0  0
    4.9110    1.5620   17.6070 C   0  0  0  0  0  0  0  0  0  0  0  0
    5.8420    0.5890   17.4830 N   0  0  0  0  0  0  0  0  0  0  0  0
    6.4030    0.1270   18.6220 C   0  0  0  0  0  0  0  0  0  0  0  0
    9.9090    2.2510   23.3660 C   0  0  0  0  0  0  0  0  0  0  0  0
  1  2  2  0
  2  3  1  0
  3  4  1  0
  4 19  2  0
  4  5  1  0
  5  6  2  0
  6  7  1  0
  7  8  2  0
  8  9  1  0
  8 19  1  0
  9 10  1  0
 10 11  2  0
 10 12  1  0
 12 13  1  0
 13 14  2  0
 13 18  1  0
 14 15  1  0
 15 16  2  0
 16 17  1  0
 17 18  2  0
M  END
>  <original SMILES>  (581) 
C=CSc1cccc(NC(=O)Nc2cccnc2)c1

>  <AutoDock Predicted Affinity>  (581) 
-5.455895

>  <ref_pdb>  (581) 
x0434_0

>  <ref_mols>  (581) 
x0434_0

>  <creator>  (581) 
Will Poole

>  <energy minimised>  (581) 
True

$$$$
WPC2624_minimised.pdb
     RDKit          3D

 24 25  0  0  0  0  0  0  0  0999 V2000
    8.6010    5.2440   22.4380 C   0  0  0  0  0  0  0  0  0  0  0  0
    9.8260    5.7580   23.1780 C   0  0  0  0  0  0  0  0  0  0  0  0
    9.8520    6.8940   23.6000 O   0  0  0  0  0  0  0  0  0  0  0  0
   11.0020    4.8920   23.4350 C   0  0  0  0  0  0  0  0  0  0  0  0
   11.2170    3.6480   22.9690 C   0  0  0  0  0  0  0  0  0  0  0  0
   10.4020    3.0170   22.1300 O   0  0  0  0  0  0  0  0  0  0  0  0
   12.4910    2.8970   23.2700 C   0  0  0  0  0  0  0  0  0  0  0  0
   12.2710    1.6160   24.1080 C   0  0  0  0  0  0  0  0  0  0  0  0
   11.7240    0.4740   23.2780 C   0  0  0  0  0  0  0  0  0  0  0  0
   12.5960   -0.3260   22.5200 C   0  0  0  0  0  0  0  0  0  0  0  0
   12.0840   -1.3420   21.7020 C   0  0  0  0  0  0  0  0  0  0  0  0
   10.6970   -1.5250   21.6030 C   0  0  0  0  0  0  0  0  0  0  0  0
    9.8250   -0.6920   22.3160 C   0  0  0  0  0  0  0  0  0  0  0  0
    8.4510   -0.6870   22.0070 N   0  0  0  0  0  0  0  0  0  0  0  0
    7.9650   -0.2130   20.8180 C   0  0  0  0  0  0  0  0  0  0  0  0
    8.6690    0.1340   19.8900 O   0  0  0  0  0  0  0  0  0  0  0  0
    6.6010   -0.1310   20.7560 N   0  0  0  0  0  0  0  0  0  0  0  0
    5.8930    0.4490   19.6750 C   0  0  0  0  0  0  0  0  0  0  0  0
    4.9420    1.4460   19.9290 C   0  0  0  0  0  0  0  0  0  0  0  0
    4.3780    2.1010   18.8270 C   0  0  0  0  0  0  0  0  0  0  0  0
    4.7890    1.7600   17.5300 C   0  0  0  0  0  0  0  0  0  0  0  0
    5.6660    0.7640   17.2740 N   0  0  0  0  0  0  0  0  0  0  0  0
    6.2120    0.1370   18.3350 C   0  0  0  0  0  0  0  0  0  0  0  0
   10.3380    0.2720   23.1890 C   0  0  0  0  0  0  0  0  0  0  0  0
  1  2  1  0
  2  3  2  0
  2  4  1  0
  4  5  2  0
  5  6  1  0
  5  7  1  0
  7  8  1  0
  8  9  1  0
  9 24  2  0
  9 10  1  0
 10 11  2  0
 11 12  1  0
 12 13  2  0
 13 14  1  0
 13 24  1  0
 14 15  1  0
 15 16  2  0
 15 17  1  0
 17 18  1  0
 18 19  2  0
 18 23  1  0
 19 20  1  0
 20 21  2  0
 21 22  1  0
 22 23  2  0
M  END
>  <original SMILES>  (582) 
CC(=O)C=C(O)CCc1cccc(NC(=O)Nc2cccnc2)c1

>  <AutoDock Predicted Affinity>  (582) 
-5.92822

>  <ref_pdb>  (582) 
x0434_0

>  <ref_mols>  (582) 
x0434_0

>  <creator>  (582) 
Will Poole

>  <energy minimised>  (582) 
True

$$$$
WPC1357_minimised.pdb
     RDKit          3D

 22 23  0  0  0  0  0  0  0  0999 V2000
   10.2520    5.6730   23.3220 C   0  0  0  0  0  0  0  0  0  0  0  0
   11.4950    4.8750   22.9350 C   0  0  0  0  0  0  0  0  0  0  0  0
   12.3430    5.3100   22.1800 O   0  0  0  0  0  0  0  0  0  0  0  0
   11.6640    3.5390   23.5510 C   0  0  0  0  0  0  0  0  0  0  0  0
   10.8730    3.0510   24.5310 C   0  0  0  0  0  0  0  0  0  0  0  0
   11.0790    1.4690   25.2030 S   0  0  0  0  0  0  0  0  0  0  0  0
   11.4580    0.4640   23.8050 C   0  0  0  0  0  0  0  0  0  0  0  0
   12.7630    0.2990   23.3140 C   0  0  0  0  0  0  0  0  0  0  0  0
   12.9740   -0.4740   22.1590 C   0  0  0  0  0  0  0  0  0  0  0  0
   11.8780   -1.0500   21.4920 C   0  0  0  0  0  0  0  0  0  0  0  0
   10.5770   -0.8580   21.9840 C   0  0  0  0  0  0  0  0  0  0  0  0
    9.4320   -1.2430   21.2650 N   0  0  0  0  0  0  0  0  0  0  0  0
    8.6070   -0.3290   20.6690 C   0  0  0  0  0  0  0  0  0  0  0  0
    8.8870    0.8480   20.5710 O   0  0  0  0  0  0  0  0  0  0  0  0
    7.4390   -0.8480   20.1860 N   0  0  0  0  0  0  0  0  0  0  0  0
    6.5050   -0.1250   19.4060 C   0  0  0  0  0  0  0  0  0  0  0  0
    5.8230    0.9750   19.9470 C   0  0  0  0  0  0  0  0  0  0  0  0
    4.9710    1.7020   19.1020 C   0  0  0  0  0  0  0  0  0  0  0  0
    4.8630    1.3380   17.7510 C   0  0  0  0  0  0  0  0  0  0  0  0
    5.5030    0.2660   17.2340 N   0  0  0  0  0  0  0  0  0  0  0  0
    6.3050   -0.4430   18.0510 C   0  0  0  0  0  0  0  0  0  0  0  0
   10.3770   -0.1150   23.1460 C   0  0  0  0  0  0  0  0  0  0  0  0
  1  2  1  0
  2  3  2  0
  2  4  1  0
  4  5  2  0
  5  6  1  0
  6  7  1  0
  7 22  2  0
  7  8  1  0
  8  9  2  0
  9 10  1  0
 10 11  2  0
 11 12  1  0
 11 22  1  0
 12 13  1  0
 13 14  2  0
 13 15  1  0
 15 16  1  0
 16 17  2  0
 16 21  1  0
 17 18  1  0
 18 19  2  0
 19 20  1  0
 20 21  2  0
M  END
>  <original SMILES>  (583) 
CC(=O)C=CSc1cccc(NC(=O)Nc2cccnc2)c1

>  <AutoDock Predicted Affinity>  (583) 
-5.55142

>  <ref_pdb>  (583) 
x0434_0

>  <ref_mols>  (583) 
x0434_0

>  <creator>  (583) 
Will Poole

>  <energy minimised>  (583) 
True

$$$$
WPC2105_minimised.pdb
     RDKit          3D

 21 22  0  0  0  0  0  0  0  0999 V2000
   12.8780    4.6420   22.3450 C   0  0  0  0  0  0  0  0  0  0  0  0
   12.1890    4.8260   23.6830 C   0  0  0  0  0  0  0  0  0  0  0  0
   12.7620    5.3470   24.6220 O   0  0  0  0  0  0  0  0  0  0  0  0
   10.7740    4.2770   23.8360 C   0  0  0  0  0  0  0  0  0  0  0  0
   10.7760    2.9150   24.5640 C   0  0  0  0  0  0  0  0  0  0  0  0
   10.8780    1.7130   23.6440 C   0  0  0  0  0  0  0  0  0  0  0  0
   12.1180    1.1800   23.2450 C   0  0  0  0  0  0  0  0  0  0  0  0
   12.1630    0.0530   22.4040 C   0  0  0  0  0  0  0  0  0  0  0  0
   10.9690   -0.5470   21.9660 C   0  0  0  0  0  0  0  0  0  0  0  0
    9.7350   -0.0230   22.3790 C   0  0  0  0  0  0  0  0  0  0  0  0
    8.5120   -0.5410   21.9130 N   0  0  0  0  0  0  0  0  0  0  0  0
    8.0150   -0.2620   20.6730 C   0  0  0  0  0  0  0  0  0  0  0  0
    8.6920    0.1230   19.7450 O   0  0  0  0  0  0  0  0  0  0  0  0
    6.6520   -0.3560   20.5930 N   0  0  0  0  0  0  0  0  0  0  0  0
    5.9080    0.2530   19.5560 C   0  0  0  0  0  0  0  0  0  0  0  0
    4.9790    1.2510   19.8780 C   0  0  0  0  0  0  0  0  0  0  0  0
    4.3950    1.9630   18.8220 C   0  0  0  0  0  0  0  0  0  0  0  0
    4.7680    1.6740   17.5020 C   0  0  0  0  0  0  0  0  0  0  0  0
    5.6340    0.6860   17.1830 N   0  0  0  0  0  0  0  0  0  0  0  0
    6.1990    0.0040   18.1990 C   0  0  0  0  0  0  0  0  0  0  0  0
    9.6940    1.1020   23.2090 C   0  0  0  0  0  0  0  0  0  0  0  0
  1  2  1  0
  2  3  2  0
  2  4  1  0
  4  5  1  0
  5  6  1  0
  6 21  2  0
  6  7  1  0
  7  8  2  0
  8  9  1  0
  9 10  2  0
 10 11  1  0
 10 21  1  0
 11 12  1  0
 12 13  2  0
 12 14  1  0
 14 15  1  0
 15 16  2  0
 15 20  1  0
 16 17  1  0
 17 18  2  0
 18 19  1  0
 19 20  2  0
M  END
>  <original SMILES>  (584) 
CC(=O)CCc1cccc(NC(=O)Nc2cccnc2)c1

>  <AutoDock Predicted Affinity>  (584) 
-5.81148

>  <ref_pdb>  (584) 
x0434_0

>  <ref_mols>  (584) 
x0434_0

>  <creator>  (584) 
Will Poole

>  <energy minimised>  (584) 
True

$$$$
WPC2484_minimised.pdb
     RDKit          3D

 21 22  0  0  0  0  0  0  0  0999 V2000
   13.7530    5.3930   21.4140 C   0  0  0  0  0  0  0  0  0  0  0  0
   13.4020    4.9540   22.8230 C   0  0  0  0  0  0  0  0  0  0  0  0
   14.2500    4.4860   23.5550 O   0  0  0  0  0  0  0  0  0  0  0  0
   11.9570    5.1790   23.2630 C   0  0  0  0  0  0  0  0  0  0  0  0
   11.3710    3.9880   24.5430 S   0  0  0  0  0  0  0  0  0  0  0  0
   11.2600    2.4130   23.7160 C   0  0  0  0  0  0  0  0  0  0  0  0
   12.4070    1.6770   23.3700 C   0  0  0  0  0  0  0  0  0  0  0  0
   12.2800    0.4360   22.7240 C   0  0  0  0  0  0  0  0  0  0  0  0
   11.0060   -0.0720   22.4200 C   0  0  0  0  0  0  0  0  0  0  0  0
    9.8610    0.6590   22.7750 C   0  0  0  0  0  0  0  0  0  0  0  0
    8.5760    0.2150   22.4030 N   0  0  0  0  0  0  0  0  0  0  0  0
    8.1050    0.2850   21.1230 C   0  0  0  0  0  0  0  0  0  0  0  0
    8.8110    0.5220   20.1660 O   0  0  0  0  0  0  0  0  0  0  0  0
    6.7500    0.1350   21.0050 N   0  0  0  0  0  0  0  0  0  0  0  0
    6.0220    0.5460   19.8610 C   0  0  0  0  0  0  0  0  0  0  0  0
    5.0240    1.5150   20.0150 C   0  0  0  0  0  0  0  0  0  0  0  0
    4.4510    2.0520   18.8550 C   0  0  0  0  0  0  0  0  0  0  0  0
    4.8940    1.6160   17.5990 C   0  0  0  0  0  0  0  0  0  0  0  0
    5.8130    0.6380   17.4370 N   0  0  0  0  0  0  0  0  0  0  0  0
    6.3780    0.1350   18.5560 C   0  0  0  0  0  0  0  0  0  0  0  0
    9.9900    1.8940   23.4250 C   0  0  0  0  0  0  0  0  0  0  0  0
  1  2  1  0
  2  3  2  0
  2  4  1  0
  4  5  1  0
  5  6  1  0
  6 21  2  0
  6  7  1  0
  7  8  2  0
  8  9  1  0
  9 10  2  0
 10 11  1  0
 10 21  1  0
 11 12  1  0
 12 13  2  0
 12 14  1  0
 14 15  1  0
 15 16  2  0
 15 20  1  0
 16 17  1  0
 17 18  2  0
 18 19  1  0
 19 20  2  0
M  END
>  <original SMILES>  (585) 
CC(=O)CSc1cccc(NC(=O)Nc2cccnc2)c1

>  <AutoDock Predicted Affinity>  (585) 
-5.231037

>  <ref_pdb>  (585) 
x0434_0

>  <ref_mols>  (585) 
x0434_0

>  <creator>  (585) 
Will Poole

>  <energy minimised>  (585) 
True

$$$$
WPC2649_minimised.pdb
     RDKit          3D

 24 25  0  0  0  0  0  0  0  0999 V2000
    8.8220    4.3090   22.8090 C   0  0  0  0  0  0  0  0  0  0  0  0
    9.6400    5.5890   22.9490 C   0  0  0  0  0  0  0  0  0  0  0  0
    9.1340    6.6810   22.8620 O   0  0  0  0  0  0  0  0  0  0  0  0
   10.9490    5.5670   23.3250 N   0  0  0  0  0  0  0  0  0  0  0  0
   11.8780    4.6100   23.5280 C   0  0  0  0  0  0  0  0  0  0  0  0
   12.8540    4.8780   24.1890 O   0  0  0  0  0  0  0  0  0  0  0  0
   11.6460    3.3750   23.0020 N   0  0  0  0  0  0  0  0  0  0  0  0
   12.4230    2.1990   23.3970 C   0  0  0  0  0  0  0  0  0  0  0  0
   11.9030    0.9020   22.8150 C   0  0  0  0  0  0  0  0  0  0  0  0
   12.8010   -0.0780   22.3590 C   0  0  0  0  0  0  0  0  0  0  0  0
   12.3170   -1.2950   21.8570 C   0  0  0  0  0  0  0  0  0  0  0  0
   10.9330   -1.5250   21.7860 C   0  0  0  0  0  0  0  0  0  0  0  0
   10.0370   -0.5400   22.2200 C   0  0  0  0  0  0  0  0  0  0  0  0
    8.6550   -0.6710   21.9780 N   0  0  0  0  0  0  0  0  0  0  0  0
    8.0770   -0.2180   20.8260 C   0  0  0  0  0  0  0  0  0  0  0  0
    8.7220    0.2260   19.8980 O   0  0  0  0  0  0  0  0  0  0  0  0
    6.7100   -0.2540   20.7960 N   0  0  0  0  0  0  0  0  0  0  0  0
    5.9500    0.3200   19.7460 C   0  0  0  0  0  0  0  0  0  0  0  0
    5.0070    1.3140   20.0360 C   0  0  0  0  0  0  0  0  0  0  0  0
    4.4210    1.9890   18.9560 C   0  0  0  0  0  0  0  0  0  0  0  0
    4.8020    1.6680   17.6440 C   0  0  0  0  0  0  0  0  0  0  0  0
    5.6710    0.6730   17.3550 N   0  0  0  0  0  0  0  0  0  0  0  0
    6.2400    0.0300   18.3940 C   0  0  0  0  0  0  0  0  0  0  0  0
   10.5200    0.6590   22.7540 C   0  0  0  0  0  0  0  0  0  0  0  0
  1  2  1  0
  2  3  2  0
  2  4  1  0
  4  5  1  0
  5  6  2  0
  5  7  1  0
  7  8  1  0
  8  9  1  0
  9 24  2  0
  9 10  1  0
 10 11  2  0
 11 12  1  0
 12 13  2  0
 13 14  1  0
 13 24  1  0
 14 15  1  0
 15 16  2  0
 15 17  1  0
 17 18  1  0
 18 19  2  0
 18 23  1  0
 19 20  1  0
 20 21  2  0
 21 22  1  0
 22 23  2  0
M  END
>  <original SMILES>  (586) 
CC(=O)NC(=O)NCc1cccc(NC(=O)Nc2cccnc2)c1

>  <AutoDock Predicted Affinity>  (586) 
-6.86648

>  <ref_pdb>  (586) 
x0434_0

>  <ref_mols>  (586) 
x0434_0

>  <creator>  (586) 
Will Poole

>  <energy minimised>  (586) 
True

$$$$
WPC1892_minimised.pdb
     RDKit          3D

 24 25  0  0  1  0  0  0  0  0999 V2000
    8.6120    5.3940   22.0230 C   0  0  0  0  0  0  0  0  0  0  0  0
    9.7970    5.8510   22.8490 C   0  0  0  0  0  0  0  0  0  0  0  0
    9.7250    6.6820   23.7260 O   0  0  0  0  0  0  0  0  0  0  0  0
   10.9670    5.1950   22.6120 N   0  0  0  0  0  0  0  0  0  0  0  0
   11.9060    4.8720   23.6810 C   0  0  2  0  0  0  0  0  0  0  0  0
   12.9500    5.9740   23.8860 C   0  0  0  0  0  0  0  0  0  0  0  0
   12.5690    3.5220   23.3680 C   0  0  0  0  0  0  0  0  0  0  0  0
   11.7950    2.2360   24.4180 S   0  0  0  0  0  0  0  0  0  0  0  0
   11.8880    0.8240   23.3700 C   0  0  0  0  0  0  0  0  0  0  0  0
   13.1110    0.3180   22.9070 C   0  0  0  0  0  0  0  0  0  0  0  0
   13.1140   -0.7510   21.9960 C   0  0  0  0  0  0  0  0  0  0  0  0
   11.8950   -1.2830   21.5420 C   0  0  0  0  0  0  0  0  0  0  0  0
   10.6790   -0.7590   22.0020 C   0  0  0  0  0  0  0  0  0  0  0  0
    9.4450   -1.1520   21.4470 N   0  0  0  0  0  0  0  0  0  0  0  0
    8.6340   -0.2830   20.7670 C   0  0  0  0  0  0  0  0  0  0  0  0
    8.9550    0.8600   20.5150 O   0  0  0  0  0  0  0  0  0  0  0  0
    7.4300   -0.7970   20.3730 N   0  0  0  0  0  0  0  0  0  0  0  0
    6.5180   -0.0940   19.5470 C   0  0  0  0  0  0  0  0  0  0  0  0
    5.8030    1.0010   20.0550 C   0  0  0  0  0  0  0  0  0  0  0  0
    5.0080    1.7380   19.1650 C   0  0  0  0  0  0  0  0  0  0  0  0
    4.9800    1.3850   17.8070 C   0  0  0  0  0  0  0  0  0  0  0  0
    5.6510    0.3180   17.3190 N   0  0  0  0  0  0  0  0  0  0  0  0
    6.4060   -0.3950   18.1770 C   0  0  0  0  0  0  0  0  0  0  0  0
   10.6820    0.2820   22.9310 C   0  0  0  0  0  0  0  0  0  0  0  0
  1  2  1  0
  2  3  2  0
  2  4  1  0
  4  5  1  0
  5  6  1  6
  5  7  1  0
  7  8  1  0
  8  9  1  0
  9 24  2  0
  9 10  1  0
 10 11  2  0
 11 12  1  0
 12 13  2  0
 13 14  1  0
 13 24  1  0
 14 15  1  0
 15 16  2  0
 15 17  1  0
 17 18  1  0
 18 19  2  0
 18 23  1  0
 19 20  1  0
 20 21  2  0
 21 22  1  0
 22 23  2  0
M  END
>  <original SMILES>  (587) 
CC(=O)NC(C)CSc1cccc(NC(=O)Nc2cccnc2)c1

>  <AutoDock Predicted Affinity>  (587) 
-5.794445

>  <ref_pdb>  (587) 
x0434_0

>  <ref_mols>  (587) 
x0434_0

>  <creator>  (587) 
Will Poole

>  <energy minimised>  (587) 
True

$$$$
WPC1515_minimised.pdb
     RDKit          3D

 23 24  0  0  1  0  0  0  0  0999 V2000
    8.6820    5.5600   22.4240 C   0  0  0  0  0  0  0  0  0  0  0  0
    9.8360    5.2470   23.3520 C   0  0  0  0  0  0  0  0  0  0  0  0
   10.0250    5.8600   24.3820 O   0  0  0  0  0  0  0  0  0  0  0  0
   10.6530    4.2270   22.9470 N   0  0  0  0  0  0  0  0  0  0  0  0
   11.8580    3.8090   23.6620 C   0  0  2  0  0  0  0  0  0  0  0  0
   13.0910    4.0490   22.7770 C   0  0  0  0  0  0  0  0  0  0  0  0
   11.7370    2.3650   24.2130 C   0  0  0  0  0  0  0  0  0  0  0  0
   11.3830    1.2590   23.2390 C   0  0  0  0  0  0  0  0  0  0  0  0
   12.3860    0.4210   22.7190 C   0  0  0  0  0  0  0  0  0  0  0  0
   12.0420   -0.6850   21.9240 C   0  0  0  0  0  0  0  0  0  0  0  0
   10.6910   -0.9540   21.6560 C   0  0  0  0  0  0  0  0  0  0  0  0
    9.6930   -0.1150   22.1690 C   0  0  0  0  0  0  0  0  0  0  0  0
    8.3430   -0.3160   21.8320 N   0  0  0  0  0  0  0  0  0  0  0  0
    7.8480   -0.0940   20.5820 C   0  0  0  0  0  0  0  0  0  0  0  0
    8.5460    0.0910   19.6050 O   0  0  0  0  0  0  0  0  0  0  0  0
    6.4850   -0.0150   20.5370 N   0  0  0  0  0  0  0  0  0  0  0  0
    5.7680    0.5580   19.4620 C   0  0  0  0  0  0  0  0  0  0  0  0
    4.8210    1.5530   19.7310 C   0  0  0  0  0  0  0  0  0  0  0  0
    4.2620    2.2300   18.6390 C   0  0  0  0  0  0  0  0  0  0  0  0
    4.6850    1.9170   17.3390 C   0  0  0  0  0  0  0  0  0  0  0  0
    5.5600    0.9220   17.0700 N   0  0  0  0  0  0  0  0  0  0  0  0
    6.0890    0.2640   18.1190 C   0  0  0  0  0  0  0  0  0  0  0  0
   10.0370    0.9850   22.9640 C   0  0  0  0  0  0  0  0  0  0  0  0
  1  2  1  0
  2  3  2  0
  2  4  1  0
  4  5  1  0
  5  6  1  6
  5  7  1  0
  7  8  1  0
  8 23  2  0
  8  9  1  0
  9 10  2  0
 10 11  1  0
 11 12  2  0
 12 13  1  0
 12 23  1  0
 13 14  1  0
 14 15  2  0
 14 16  1  0
 16 17  1  0
 17 18  2  0
 17 22  1  0
 18 19  1  0
 19 20  2  0
 20 21  1  0
 21 22  2  0
M  END
>  <original SMILES>  (588) 
CC(=O)NC(C)Cc1cccc(NC(=O)Nc2cccnc2)c1

>  <AutoDock Predicted Affinity>  (588) 
-6.14507

>  <ref_pdb>  (588) 
x0434_0

>  <ref_mols>  (588) 
x0434_0

>  <creator>  (588) 
Will Poole

>  <energy minimised>  (588) 
True

$$$$
WPC1782_minimised.pdb
     RDKit          3D

 24 25  0  0  1  0  0  0  0  0999 V2000
    5.8730    6.0750   27.5000 C   0  0  0  0  0  0  0  0  0  0  0  0
    8.3180    5.1300   24.5960 C   0  0  0  0  0  0  0  0  0  0  0  0
    8.3240    5.6070   23.4510 O   0  0  0  0  0  0  0  0  0  0  0  0
    9.6300    4.5570   24.6640 N   0  0  0  0  0  0  0  0  0  0  0  0
   10.4030    4.2480   23.4120 C   0  0  0  0  0  0  0  0  0  0  0  0
   11.8450    3.7620   23.5620 C   0  0  1  0  0  0  0  0  0  0  0  0
   12.7820    4.8870   24.0490 C   0  0  0  0  0  0  0  0  0  0  0  0
   11.8870    2.2700   24.6210 S   0  0  0  0  0  0  0  0  0  0  0  0
   11.4600    0.9640   23.5080 C   0  0  0  0  0  0  0  0  0  0  0  0
   12.4690    0.2330   22.8650 C   0  0  0  0  0  0  0  0  0  0  0  0
   12.1270   -0.8120   21.9920 C   0  0  0  0  0  0  0  0  0  0  0  0
   10.7730   -1.0990   21.7530 C   0  0  0  0  0  0  0  0  0  0  0  0
    9.7680   -0.3440   22.3750 C   0  0  0  0  0  0  0  0  0  0  0  0
    8.4170   -0.5240   22.0250 N   0  0  0  0  0  0  0  0  0  0  0  0
    7.9170   -0.2140   20.7920 C   0  0  0  0  0  0  0  0  0  0  0  0
    8.6090    0.0710   19.8360 O   0  0  0  0  0  0  0  0  0  0  0  0
    6.5510   -0.1950   20.7330 N   0  0  0  0  0  0  0  0  0  0  0  0
    5.8220    0.3750   19.6610 C   0  0  0  0  0  0  0  0  0  0  0  0
    4.8760    1.3720   19.9320 C   0  0  0  0  0  0  0  0  0  0  0  0
    4.3070    2.0450   18.8420 C   0  0  0  0  0  0  0  0  0  0  0  0
    4.7050    1.7140   17.5380 C   0  0  0  0  0  0  0  0  0  0  0  0
    5.5760    0.7170   17.2650 N   0  0  0  0  0  0  0  0  0  0  0  0
    6.1300    0.0770   18.3150 C   0  0  0  0  0  0  0  0  0  0  0  0
   10.1120    0.6760   23.2690 C   0  0  0  0  0  0  0  0  0  0  0  0
  1  2  1  0
  2  3  2  0
  2  4  1  0
  4  5  1  0
  5  6  1  0
  6  7  1  1
  6  8  1  0
  8  9  1  0
  9 24  2  0
  9 10  1  0
 10 11  2  0
 11 12  1  0
 12 13  2  0
 13 14  1  0
 13 24  1  0
 14 15  1  0
 15 16  2  0
 15 17  1  0
 17 18  1  0
 18 19  2  0
 18 23  1  0
 19 20  1  0
 20 21  2  0
 21 22  1  0
 22 23  2  0
M  END
>  <original SMILES>  (589) 
CC(=O)NCC(C)Sc1cccc(NC(=O)Nc2cccnc2)c1

>  <AutoDock Predicted Affinity>  (589) 
-5.156035

>  <ref_pdb>  (589) 
x0434_0

>  <ref_mols>  (589) 
x0434_0

>  <creator>  (589) 
Will Poole

>  <energy minimised>  (589) 
True

$$$$
WPC1378_minimised.pdb
     RDKit          3D

 23 24  0  0  0  0  0  0  0  0999 V2000
    8.6210    4.7050   22.6410 C   0  0  0  0  0  0  0  0  0  0  0  0
    9.8040    5.5670   23.0680 C   0  0  0  0  0  0  0  0  0  0  0  0
    9.6970    6.7530   23.2930 O   0  0  0  0  0  0  0  0  0  0  0  0
   11.0310    4.9940   23.2850 N   0  0  0  0  0  0  0  0  0  0  0  0
   11.3820    3.5750   23.1530 C   0  0  0  0  0  0  0  0  0  0  0  0
   11.0980    2.8420   24.4750 C   0  0  0  0  0  0  0  0  0  0  0  0
   11.6960    1.4210   24.5350 C   0  0  0  0  0  0  0  0  0  0  0  0
   11.2320    0.4980   23.4310 C   0  0  0  0  0  0  0  0  0  0  0  0
   12.1690   -0.2190   22.6690 C   0  0  0  0  0  0  0  0  0  0  0  0
   11.7340   -1.1580   21.7240 C   0  0  0  0  0  0  0  0  0  0  0  0
   10.3600   -1.3350   21.5070 C   0  0  0  0  0  0  0  0  0  0  0  0
    9.4280   -0.5590   22.2060 C   0  0  0  0  0  0  0  0  0  0  0  0
    8.0760   -0.5580   21.8230 N   0  0  0  0  0  0  0  0  0  0  0  0
    7.6660   -0.1790   20.5760 C   0  0  0  0  0  0  0  0  0  0  0  0
    8.4210   -0.0020   19.6400 O   0  0  0  0  0  0  0  0  0  0  0  0
    6.3200    0.0310   20.4860 N   0  0  0  0  0  0  0  0  0  0  0  0
    5.6710    0.6430   19.3890 C   0  0  0  0  0  0  0  0  0  0  0  0
    4.7150    1.6360   19.6300 C   0  0  0  0  0  0  0  0  0  0  0  0
    4.1910    2.3160   18.5240 C   0  0  0  0  0  0  0  0  0  0  0  0
    4.6580    2.0120   17.2370 C   0  0  0  0  0  0  0  0  0  0  0  0
    5.5440    1.0200   16.9930 N   0  0  0  0  0  0  0  0  0  0  0  0
    6.0370    0.3580   18.0560 C   0  0  0  0  0  0  0  0  0  0  0  0
    9.8590    0.3270   23.1940 C   0  0  0  0  0  0  0  0  0  0  0  0
  1  2  1  0
  2  3  2  0
  2  4  1  0
  4  5  1  0
  5  6  1  0
  6  7  1  0
  7  8  1  0
  8 23  2  0
  8  9  1  0
  9 10  2  0
 10 11  1  0
 11 12  2  0
 12 13  1  0
 12 23  1  0
 13 14  1  0
 14 15  2  0
 14 16  1  0
 16 17  1  0
 17 18  2  0
 17 22  1  0
 18 19  1  0
 19 20  2  0
 20 21  1  0
 21 22  2  0
M  END
>  <original SMILES>  (590) 
CC(=O)NCCCc1cccc(NC(=O)Nc2cccnc2)c1

>  <AutoDock Predicted Affinity>  (590) 
-5.750055

>  <ref_pdb>  (590) 
x0434_0

>  <ref_mols>  (590) 
x0434_0

>  <creator>  (590) 
Will Poole

>  <energy minimised>  (590) 
True

$$$$
WPC2334_minimised.pdb
     RDKit          3D

 23 24  0  0  0  0  0  0  0  0999 V2000
    8.8580    5.5230   22.4700 C   0  0  0  0  0  0  0  0  0  0  0  0
   10.1640    5.6790   23.2230 C   0  0  0  0  0  0  0  0  0  0  0  0
   10.2160    6.0850   24.3630 O   0  0  0  0  0  0  0  0  0  0  0  0
   11.2880    5.3240   22.5290 N   0  0  0  0  0  0  0  0  0  0  0  0
   12.5870    5.0470   23.1490 C   0  0  0  0  0  0  0  0  0  0  0  0
   12.8330    3.5370   23.0810 C   0  0  0  0  0  0  0  0  0  0  0  0
   11.6470    2.6460   24.1680 S   0  0  0  0  0  0  0  0  0  0  0  0
   11.3790    1.1270   23.2990 C   0  0  0  0  0  0  0  0  0  0  0  0
   12.4450    0.3410   22.8320 C   0  0  0  0  0  0  0  0  0  0  0  0
   12.1790   -0.8270   22.0960 C   0  0  0  0  0  0  0  0  0  0  0  0
   10.8500   -1.1940   21.8240 C   0  0  0  0  0  0  0  0  0  0  0  0
    9.7930   -0.3980   22.2870 C   0  0  0  0  0  0  0  0  0  0  0  0
    8.4650   -0.6600   21.9070 N   0  0  0  0  0  0  0  0  0  0  0  0
    7.9600   -0.2760   20.6990 C   0  0  0  0  0  0  0  0  0  0  0  0
    8.6490    0.0970   19.7700 O   0  0  0  0  0  0  0  0  0  0  0  0
    6.5950   -0.2770   20.6350 N   0  0  0  0  0  0  0  0  0  0  0  0
    5.8670    0.3330   19.5860 C   0  0  0  0  0  0  0  0  0  0  0  0
    4.9340    1.3340   19.8870 C   0  0  0  0  0  0  0  0  0  0  0  0
    4.3660    2.0360   18.8150 C   0  0  0  0  0  0  0  0  0  0  0  0
    4.7540    1.7320   17.5020 C   0  0  0  0  0  0  0  0  0  0  0  0
    5.6210    0.7390   17.2030 N   0  0  0  0  0  0  0  0  0  0  0  0
    6.1700    0.0660   18.2340 C   0  0  0  0  0  0  0  0  0  0  0  0
   10.0590    0.7540   23.0330 C   0  0  0  0  0  0  0  0  0  0  0  0
  1  2  1  0
  2  3  2  0
  2  4  1  0
  4  5  1  0
  5  6  1  0
  6  7  1  0
  7  8  1  0
  8 23  2  0
  8  9  1  0
  9 10  2  0
 10 11  1  0
 11 12  2  0
 12 13  1  0
 12 23  1  0
 13 14  1  0
 14 15  2  0
 14 16  1  0
 16 17  1  0
 17 18  2  0
 17 22  1  0
 18 19  1  0
 19 20  2  0
 20 21  1  0
 21 22  2  0
M  END
>  <original SMILES>  (591) 
CC(=O)NCCSc1cccc(NC(=O)Nc2cccnc2)c1

>  <AutoDock Predicted Affinity>  (591) 
-5.416518

>  <ref_pdb>  (591) 
x0434_0

>  <ref_mols>  (591) 
x0434_0

>  <creator>  (591) 
Will Poole

>  <energy minimised>  (591) 
True

$$$$
WPC2393_minimised.pdb
     RDKit          3D

 22 23  0  0  0  0  0  0  0  0999 V2000
   13.6560    5.3400   22.1710 C   0  0  0  0  0  0  0  0  0  0  0  0
   12.6730    5.0430   23.2880 C   0  0  0  0  0  0  0  0  0  0  0  0
   12.9370    5.2530   24.4550 O   0  0  0  0  0  0  0  0  0  0  0  0
   11.4670    4.5080   22.9040 N   0  0  0  0  0  0  0  0  0  0  0  0
   10.4090    4.1460   23.8500 C   0  0  0  0  0  0  0  0  0  0  0  0
   10.7060    2.8040   24.5490 C   0  0  0  0  0  0  0  0  0  0  0  0
   10.7200    1.6050   23.6210 C   0  0  0  0  0  0  0  0  0  0  0  0
   11.9290    1.0390   23.1750 C   0  0  0  0  0  0  0  0  0  0  0  0
   11.9150   -0.0770   22.3210 C   0  0  0  0  0  0  0  0  0  0  0  0
   10.6890   -0.6270   21.9080 C   0  0  0  0  0  0  0  0  0  0  0  0
    9.4860   -0.0620   22.3590 C   0  0  0  0  0  0  0  0  0  0  0  0
    8.2390   -0.5050   21.8850 N   0  0  0  0  0  0  0  0  0  0  0  0
    7.8120   -0.2580   20.6140 C   0  0  0  0  0  0  0  0  0  0  0  0
    8.5500    0.0150   19.6890 O   0  0  0  0  0  0  0  0  0  0  0  0
    6.4500   -0.2490   20.5010 N   0  0  0  0  0  0  0  0  0  0  0  0
    5.7650    0.3830   19.4380 C   0  0  0  0  0  0  0  0  0  0  0  0
    4.8240    1.3770   19.7310 C   0  0  0  0  0  0  0  0  0  0  0  0
    4.2930    2.1070   18.6590 C   0  0  0  0  0  0  0  0  0  0  0  0
    4.7320    1.8400   17.3550 C   0  0  0  0  0  0  0  0  0  0  0  0
    5.6100    0.8540   17.0620 N   0  0  0  0  0  0  0  0  0  0  0  0
    6.1190    0.1510   18.0930 C   0  0  0  0  0  0  0  0  0  0  0  0
    9.5030    1.0430   23.2150 C   0  0  0  0  0  0  0  0  0  0  0  0
  1  2  1  0
  2  3  2  0
  2  4  1  0
  4  5  1  0
  5  6  1  0
  6  7  1  0
  7 22  2  0
  7  8  1  0
  8  9  2  0
  9 10  1  0
 10 11  2  0
 11 12  1  0
 11 22  1  0
 12 13  1  0
 13 14  2  0
 13 15  1  0
 15 16  1  0
 16 17  2  0
 16 21  1  0
 17 18  1  0
 18 19  2  0
 19 20  1  0
 20 21  2  0
M  END
>  <original SMILES>  (592) 
CC(=O)NCCc1cccc(NC(=O)Nc2cccnc2)c1

>  <AutoDock Predicted Affinity>  (592) 
-6.498575

>  <ref_pdb>  (592) 
x0434_0

>  <ref_mols>  (592) 
x0434_0

>  <creator>  (592) 
Will Poole

>  <energy minimised>  (592) 
True

$$$$
WPC2621_minimised.pdb
     RDKit          3D

 24 25  0  0  0  0  0  0  0  0999 V2000
   12.6790    7.2420   25.6550 C   0  0  0  0  0  0  0  0  0  0  0  0
   12.0150    6.3450   24.6250 C   0  0  0  0  0  0  0  0  0  0  0  0
   10.8110    6.2720   24.4720 O   0  0  0  0  0  0  0  0  0  0  0  0
   12.9320    5.7990   23.7820 O   0  0  0  0  0  0  0  0  0  0  0  0
   12.4860    4.9620   22.6940 C   0  0  0  0  0  0  0  0  0  0  0  0
   12.4810    3.4850   23.1300 C   0  0  0  0  0  0  0  0  0  0  0  0
   11.4250    3.1140   24.1920 C   0  0  0  0  0  0  0  0  0  0  0  0
   11.5470    1.6390   24.6260 C   0  0  0  0  0  0  0  0  0  0  0  0
   11.1890    0.6520   23.5380 C   0  0  0  0  0  0  0  0  0  0  0  0
   12.1930   -0.0270   22.8240 C   0  0  0  0  0  0  0  0  0  0  0  0
   11.8440   -0.9930   21.8680 C   0  0  0  0  0  0  0  0  0  0  0  0
   10.4900   -1.2450   21.6020 C   0  0  0  0  0  0  0  0  0  0  0  0
    9.4930   -0.5180   22.2640 C   0  0  0  0  0  0  0  0  0  0  0  0
    8.1480   -0.6210   21.8690 N   0  0  0  0  0  0  0  0  0  0  0  0
    7.7160   -0.3040   20.6130 C   0  0  0  0  0  0  0  0  0  0  0  0
    8.4530   -0.1350   19.6610 O   0  0  0  0  0  0  0  0  0  0  0  0
    6.3620   -0.1350   20.5410 N   0  0  0  0  0  0  0  0  0  0  0  0
    5.6910    0.4820   19.4600 C   0  0  0  0  0  0  0  0  0  0  0  0
    4.7570    1.4900   19.7280 C   0  0  0  0  0  0  0  0  0  0  0  0
    4.2210    2.1860   18.6370 C   0  0  0  0  0  0  0  0  0  0  0  0
    4.6480    1.8750   17.3380 C   0  0  0  0  0  0  0  0  0  0  0  0
    5.5130    0.8710   17.0690 N   0  0  0  0  0  0  0  0  0  0  0  0
    6.0260    0.2000   18.1180 C   0  0  0  0  0  0  0  0  0  0  0  0
    9.8390    0.4100   23.2490 C   0  0  0  0  0  0  0  0  0  0  0  0
  1  2  1  0
  2  3  2  0
  2  4  1  0
  4  5  1  0
  5  6  1  0
  6  7  1  0
  7  8  1  0
  8  9  1  0
  9 24  2  0
  9 10  1  0
 10 11  2  0
 11 12  1  0
 12 13  2  0
 13 14  1  0
 13 24  1  0
 14 15  1  0
 15 16  2  0
 15 17  1  0
 17 18  1  0
 18 19  2  0
 18 23  1  0
 19 20  1  0
 20 21  2  0
 21 22  1  0
 22 23  2  0
M  END
>  <original SMILES>  (593) 
CC(=O)OCCCCc1cccc(NC(=O)Nc2cccnc2)c1

>  <AutoDock Predicted Affinity>  (593) 
-5.097225

>  <ref_pdb>  (593) 
x0434_0

>  <ref_mols>  (593) 
x0434_0

>  <creator>  (593) 
Will Poole

>  <energy minimised>  (593) 
True

$$$$
WPC1572_minimised.pdb
     RDKit          3D

 23 24  0  0  0  0  0  0  0  0999 V2000
   12.7830    7.3100   25.7270 C   0  0  0  0  0  0  0  0  0  0  0  0
   12.4790    6.2060   24.7280 C   0  0  0  0  0  0  0  0  0  0  0  0
   13.2470    5.2950   24.4890 O   0  0  0  0  0  0  0  0  0  0  0  0
   11.2840    6.3930   24.1050 O   0  0  0  0  0  0  0  0  0  0  0  0
   10.8350    5.4400   23.1130 C   0  0  0  0  0  0  0  0  0  0  0  0
    9.9120    4.4030   23.7780 C   0  0  0  0  0  0  0  0  0  0  0  0
   10.6310    3.2300   24.4950 C   0  0  0  0  0  0  0  0  0  0  0  0
   10.7640    1.9870   23.6340 C   0  0  0  0  0  0  0  0  0  0  0  0
   12.0140    1.5270   23.1820 C   0  0  0  0  0  0  0  0  0  0  0  0
   12.0930    0.3780   22.3750 C   0  0  0  0  0  0  0  0  0  0  0  0
   10.9200   -0.3050   22.0050 C   0  0  0  0  0  0  0  0  0  0  0  0
    9.6750    0.1520   22.4650 C   0  0  0  0  0  0  0  0  0  0  0  0
    8.4620   -0.4140   22.0300 N   0  0  0  0  0  0  0  0  0  0  0  0
    7.9770   -0.2200   20.7690 C   0  0  0  0  0  0  0  0  0  0  0  0
    8.6710    0.0620   19.8130 O   0  0  0  0  0  0  0  0  0  0  0  0
    6.6130   -0.2730   20.6930 N   0  0  0  0  0  0  0  0  0  0  0  0
    5.8830    0.3080   19.6290 C   0  0  0  0  0  0  0  0  0  0  0  0
    4.9540    1.3170   19.9150 C   0  0  0  0  0  0  0  0  0  0  0  0
    4.3790    1.9990   18.8350 C   0  0  0  0  0  0  0  0  0  0  0  0
    4.7570    1.6680   17.5250 C   0  0  0  0  0  0  0  0  0  0  0  0
    5.6240    0.6700   17.2410 N   0  0  0  0  0  0  0  0  0  0  0  0
    6.1820    0.0180   18.2800 C   0  0  0  0  0  0  0  0  0  0  0  0
    9.6030    1.2800   23.2890 C   0  0  0  0  0  0  0  0  0  0  0  0
  1  2  1  0
  2  3  2  0
  2  4  1  0
  4  5  1  0
  5  6  1  0
  6  7  1  0
  7  8  1  0
  8 23  2  0
  8  9  1  0
  9 10  2  0
 10 11  1  0
 11 12  2  0
 12 13  1  0
 12 23  1  0
 13 14  1  0
 14 15  2  0
 14 16  1  0
 16 17  1  0
 17 18  2  0
 17 22  1  0
 18 19  1  0
 19 20  2  0
 20 21  1  0
 21 22  2  0
M  END
>  <original SMILES>  (594) 
CC(=O)OCCCc1cccc(NC(=O)Nc2cccnc2)c1

>  <AutoDock Predicted Affinity>  (594) 
-5.4388

>  <ref_pdb>  (594) 
x0434_0

>  <ref_mols>  (594) 
x0434_0

>  <creator>  (594) 
Will Poole

>  <energy minimised>  (594) 
True

$$$$
WPC1904_minimised.pdb
     RDKit          3D

 22 23  0  0  0  0  0  0  0  0999 V2000
    8.5400    5.1840   22.5810 C   0  0  0  0  0  0  0  0  0  0  0  0
   10.0010    5.1520   22.9710 C   0  0  0  0  0  0  0  0  0  0  0  0
   10.5910    6.1330   23.3940 O   0  0  0  0  0  0  0  0  0  0  0  0
   10.4430    3.8720   23.1120 O   0  0  0  0  0  0  0  0  0  0  0  0
   11.8600    3.6500   23.2020 C   0  0  0  0  0  0  0  0  0  0  0  0
   12.1350    2.2520   23.7960 C   0  0  0  0  0  0  0  0  0  0  0  0
   11.6430    1.0550   23.0020 C   0  0  0  0  0  0  0  0  0  0  0  0
   12.5630    0.1280   22.4780 C   0  0  0  0  0  0  0  0  0  0  0  0
   12.1090   -1.0220   21.8140 C   0  0  0  0  0  0  0  0  0  0  0  0
   10.7310   -1.2420   21.6640 C   0  0  0  0  0  0  0  0  0  0  0  0
    9.8140   -0.3110   22.1660 C   0  0  0  0  0  0  0  0  0  0  0  0
    8.4410   -0.4450   21.8890 N   0  0  0  0  0  0  0  0  0  0  0  0
    7.9060   -0.1550   20.6670 C   0  0  0  0  0  0  0  0  0  0  0  0
    8.5760    0.0780   19.6820 O   0  0  0  0  0  0  0  0  0  0  0  0
    6.5400   -0.0840   20.6530 N   0  0  0  0  0  0  0  0  0  0  0  0
    5.8000    0.4840   19.5870 C   0  0  0  0  0  0  0  0  0  0  0  0
    4.8660    1.4900   19.8630 C   0  0  0  0  0  0  0  0  0  0  0  0
    4.2870    2.1550   18.7750 C   0  0  0  0  0  0  0  0  0  0  0  0
    4.6730    1.8170   17.4690 C   0  0  0  0  0  0  0  0  0  0  0  0
    5.5320    0.8110   17.1940 N   0  0  0  0  0  0  0  0  0  0  0  0
    6.0860    0.1680   18.2410 C   0  0  0  0  0  0  0  0  0  0  0  0
   10.2670    0.8240   22.8470 C   0  0  0  0  0  0  0  0  0  0  0  0
  1  2  1  0
  2  3  2  0
  2  4  1  0
  4  5  1  0
  5  6  1  0
  6  7  1  0
  7 22  2  0
  7  8  1  0
  8  9  2  0
  9 10  1  0
 10 11  2  0
 11 12  1  0
 11 22  1  0
 12 13  1  0
 13 14  2  0
 13 15  1  0
 15 16  1  0
 16 17  2  0
 16 21  1  0
 17 18  1  0
 18 19  2  0
 19 20  1  0
 20 21  2  0
M  END
>  <original SMILES>  (595) 
CC(=O)OCCc1cccc(NC(=O)Nc2cccnc2)c1

>  <AutoDock Predicted Affinity>  (595) 
-5.29925

>  <ref_pdb>  (595) 
x0434_0

>  <ref_mols>  (595) 
x0434_0

>  <creator>  (595) 
Will Poole

>  <energy minimised>  (595) 
True

$$$$
WPC2068_minimised.pdb
     RDKit          3D

 24 25  0  0  0  0  0  0  0  0999 V2000
   13.7940    5.4490   21.6600 C   0  0  0  0  0  0  0  0  0  0  0  0
   13.0140    5.1470   22.9210 C   0  0  0  0  0  0  0  0  0  0  0  0
   13.5310    4.7630   23.9590 O   0  0  0  0  0  0  0  0  0  0  0  0
   11.6740    5.4210   22.7780 O   0  0  0  0  0  0  0  0  0  0  0  0
   10.9870    5.1300   23.9990 N   0  0  0  0  0  0  0  0  0  0  0  0
   10.1480    4.0410   23.8990 C   0  0  0  0  0  0  0  0  0  0  0  0
    9.0130    4.1680   23.3410 N   0  0  0  0  0  0  0  0  0  0  0  0
   10.6160    2.7810   24.5980 C   0  0  0  0  0  0  0  0  0  0  0  0
   10.6980    1.5680   23.6870 C   0  0  0  0  0  0  0  0  0  0  0  0
   11.9300    1.0430   23.2540 C   0  0  0  0  0  0  0  0  0  0  0  0
   11.9580   -0.0620   22.3830 C   0  0  0  0  0  0  0  0  0  0  0  0
   10.7550   -0.6390   21.9390 C   0  0  0  0  0  0  0  0  0  0  0  0
    9.5300   -0.1150   22.3790 C   0  0  0  0  0  0  0  0  0  0  0  0
    8.2960   -0.5720   21.8820 N   0  0  0  0  0  0  0  0  0  0  0  0
    7.8730   -0.3000   20.6140 C   0  0  0  0  0  0  0  0  0  0  0  0
    8.6110   -0.0680   19.6790 O   0  0  0  0  0  0  0  0  0  0  0  0
    6.5120   -0.2240   20.5190 N   0  0  0  0  0  0  0  0  0  0  0  0
    5.8300    0.4160   19.4590 C   0  0  0  0  0  0  0  0  0  0  0  0
    4.9000    1.4210   19.7560 C   0  0  0  0  0  0  0  0  0  0  0  0
    4.3480    2.1350   18.6850 C   0  0  0  0  0  0  0  0  0  0  0  0
    4.7570    1.8460   17.3750 C   0  0  0  0  0  0  0  0  0  0  0  0
    5.6270    0.8540   17.0790 N   0  0  0  0  0  0  0  0  0  0  0  0
    6.1570    0.1660   18.1100 C   0  0  0  0  0  0  0  0  0  0  0  0
    9.5060    0.9720   23.2570 C   0  0  0  0  0  0  0  0  0  0  0  0
  1  2  1  0
  2  3  2  0
  2  4  1  0
  4  5  1  0
  5  6  1  0
  6  7  2  0
  6  8  1  0
  8  9  1  0
  9 24  2  0
  9 10  1  0
 10 11  2  0
 11 12  1  0
 12 13  2  0
 13 14  1  0
 13 24  1  0
 14 15  1  0
 15 16  2  0
 15 17  1  0
 17 18  1  0
 18 19  2  0
 18 23  1  0
 19 20  1  0
 20 21  2  0
 21 22  1  0
 22 23  2  0
M  END
>  <original SMILES>  (596) 
CC(=O)ONC(=N)Cc1cccc(NC(=O)Nc2cccnc2)c1

>  <AutoDock Predicted Affinity>  (596) 
-6.08405

>  <ref_pdb>  (596) 
x0434_0

>  <ref_mols>  (596) 
x0434_0

>  <creator>  (596) 
Will Poole

>  <energy minimised>  (596) 
True

$$$$
WPC1627_minimised.pdb
     RDKit          3D

 24 25  0  0  0  0  0  0  0  0999 V2000
   10.1450    2.6930   22.1410 C   0  0  0  0  0  0  0  0  0  0  0  0
   11.0360    3.7210   22.8960 C   0  0  0  0  0  0  0  0  0  0  0  0
   12.0550    4.3860   21.9300 C   0  0  0  0  0  0  0  0  0  0  0  0
   10.1630    4.8490   23.5130 C   0  0  0  0  0  0  0  0  0  0  0  0
   11.8160    2.9570   23.9810 C   0  0  0  0  0  0  0  0  0  0  0  0
   13.0270    2.8280   23.9310 O   0  0  0  0  0  0  0  0  0  0  0  0
   11.0240    2.3060   25.1150 C   0  0  0  0  0  0  0  0  0  0  0  0
   11.4620    0.8440   25.3540 C   0  0  0  0  0  0  0  0  0  0  0  0
   11.2530    0.0350   24.0990 C   0  0  0  0  0  0  0  0  0  0  0  0
   12.3280   -0.1920   23.2210 C   0  0  0  0  0  0  0  0  0  0  0  0
   12.1150   -0.8610   22.0100 C   0  0  0  0  0  0  0  0  0  0  0  0
   10.8110   -1.2220   21.6510 C   0  0  0  0  0  0  0  0  0  0  0  0
    9.7280   -0.9240   22.4870 C   0  0  0  0  0  0  0  0  0  0  0  0
    8.4090   -1.0350   22.0070 N   0  0  0  0  0  0  0  0  0  0  0  0
    7.9570   -0.3990   20.8810 C   0  0  0  0  0  0  0  0  0  0  0  0
    8.6650    0.2130   20.1040 O   0  0  0  0  0  0  0  0  0  0  0  0
    6.6040   -0.4840   20.7160 N   0  0  0  0  0  0  0  0  0  0  0  0
    5.8990    0.1450   19.6640 C   0  0  0  0  0  0  0  0  0  0  0  0
    4.9230    1.1050   19.9560 C   0  0  0  0  0  0  0  0  0  0  0  0
    4.3420    1.7890   18.8800 C   0  0  0  0  0  0  0  0  0  0  0  0
    4.7490    1.4940   17.5700 C   0  0  0  0  0  0  0  0  0  0  0  0
    5.6690    0.5470   17.2790 N   0  0  0  0  0  0  0  0  0  0  0  0
    6.2470   -0.0900   18.3160 C   0  0  0  0  0  0  0  0  0  0  0  0
    9.9530   -0.3430   23.7360 C   0  0  0  0  0  0  0  0  0  0  0  0
  1  2  1  0
  2  3  1  0
  2  4  1  0
  2  5  1  0
  5  6  2  0
  5  7  1  0
  7  8  1  0
  8  9  1  0
  9 24  2  0
  9 10  1  0
 10 11  2  0
 11 12  1  0
 12 13  2  0
 13 14  1  0
 13 24  1  0
 14 15  1  0
 15 16  2  0
 15 17  1  0
 17 18  1  0
 18 19  2  0
 18 23  1  0
 19 20  1  0
 20 21  2  0
 21 22  1  0
 22 23  2  0
M  END
>  <original SMILES>  (597) 
CC(C)(C)C(=O)CCc1cccc(NC(=O)Nc2cccnc2)c1

>  <AutoDock Predicted Affinity>  (597) 
-6.38405

>  <ref_pdb>  (597) 
x0434_0

>  <ref_mols>  (597) 
x0434_0

>  <creator>  (597) 
Will Poole

>  <energy minimised>  (597) 
True

$$$$
WPC2338_minimised.pdb
     RDKit          3D

 23 24  0  0  0  0  0  0  0  0999 V2000
   12.1020    5.9580   24.8030 C   0  0  0  0  0  0  0  0  0  0  0  0
   11.4180    4.9510   23.8430 C   0  0  0  0  0  0  0  0  0  0  0  0
   12.3920    4.6180   22.6880 C   0  0  0  0  0  0  0  0  0  0  0  0
   11.0870    3.4360   24.8650 S   0  0  0  0  0  0  0  0  0  0  0  0
   11.0040    2.0200   23.7910 C   0  0  0  0  0  0  0  0  0  0  0  0
   12.1760    1.4000   23.3240 C   0  0  0  0  0  0  0  0  0  0  0  0
   12.0910    0.2830   22.4750 C   0  0  0  0  0  0  0  0  0  0  0  0
   10.8310   -0.2190   22.1050 C   0  0  0  0  0  0  0  0  0  0  0  0
    9.6640    0.3850   22.6010 C   0  0  0  0  0  0  0  0  0  0  0  0
    8.3870   -0.0460   22.1910 N   0  0  0  0  0  0  0  0  0  0  0  0
    7.9420    0.0460   20.9050 C   0  0  0  0  0  0  0  0  0  0  0  0
    8.6710    0.2430   19.9550 O   0  0  0  0  0  0  0  0  0  0  0  0
    6.5820   -0.0200   20.7890 N   0  0  0  0  0  0  0  0  0  0  0  0
    5.8710    0.4760   19.6710 C   0  0  0  0  0  0  0  0  0  0  0  0
    4.8980    1.4610   19.8780 C   0  0  0  0  0  0  0  0  0  0  0  0
    4.3360    2.0700   18.7500 C   0  0  0  0  0  0  0  0  0  0  0  0
    4.7700    1.6930   17.4720 C   0  0  0  0  0  0  0  0  0  0  0  0
    5.6710    0.7070   17.2600 N   0  0  0  0  0  0  0  0  0  0  0  0
    6.2180    0.1260   18.3470 C   0  0  0  0  0  0  0  0  0  0  0  0
    9.7520    1.4960   23.4490 C   0  0  0  0  0  0  0  0  0  0  0  0
   10.0840    5.5390   23.3190 C   0  0  0  0  0  0  0  0  0  0  0  0
    9.7820    6.7100   23.4370 O   0  0  0  0  0  0  0  0  0  0  0  0
    9.1580    4.6250   22.9940 O   0  0  0  0  0  0  0  0  0  0  0  0
  1  2  1  0
  2 21  1  0
  2  3  1  0
  2  4  1  0
  4  5  1  0
  5 20  2  0
  5  6  1  0
  6  7  2  0
  7  8  1  0
  8  9  2  0
  9 10  1  0
  9 20  1  0
 10 11  1  0
 11 12  2  0
 11 13  1  0
 13 14  1  0
 14 15  2  0
 14 19  1  0
 15 16  1  0
 16 17  2  0
 17 18  1  0
 18 19  2  0
 21 22  2  0
 21 23  1  0
M  END
>  <original SMILES>  (598) 
CC(C)(Sc1cccc(NC(=O)Nc2cccnc2)c1)C(=O)O

>  <AutoDock Predicted Affinity>  (598) 
-5.286715

>  <ref_pdb>  (598) 
x0434_0

>  <ref_mols>  (598) 
x0434_0

>  <creator>  (598) 
Will Poole

>  <energy minimised>  (598) 
True

$$$$
WPC2303_minimised.pdb
     RDKit          3D

 24 25  0  0  0  0  0  0  0  0999 V2000
   13.9710    3.1810   22.6640 C   0  0  0  0  0  0  0  0  0  0  0  0
   13.6290    4.5990   23.1710 C   0  0  0  0  0  0  0  0  0  0  0  0
   13.9300    5.6260   22.0600 C   0  0  0  0  0  0  0  0  0  0  0  0
   12.1880    4.7050   23.6990 C   0  0  0  0  0  0  0  0  0  0  0  0
   11.5760    5.7540   23.8270 O   0  0  0  0  0  0  0  0  0  0  0  0
   11.7770    3.5170   24.2250 O   0  0  0  0  0  0  0  0  0  0  0  0
   10.4300    3.3810   24.6900 C   0  0  0  0  0  0  0  0  0  0  0  0
   10.2300    1.9230   25.1530 C   0  0  0  0  0  0  0  0  0  0  0  0
   10.2960    0.9190   24.0190 C   0  0  0  0  0  0  0  0  0  0  0  0
   11.5280    0.4220   23.5580 C   0  0  0  0  0  0  0  0  0  0  0  0
   11.5690   -0.4950   22.4940 C   0  0  0  0  0  0  0  0  0  0  0  0
   10.3720   -0.9180   21.8930 C   0  0  0  0  0  0  0  0  0  0  0  0
    9.1460   -0.4250   22.3620 C   0  0  0  0  0  0  0  0  0  0  0  0
    7.9310   -0.7340   21.7340 N   0  0  0  0  0  0  0  0  0  0  0  0
    7.6380   -0.3750   20.4530 C   0  0  0  0  0  0  0  0  0  0  0  0
    8.4630   -0.1380   19.5930 O   0  0  0  0  0  0  0  0  0  0  0  0
    6.2920   -0.2290   20.2760 N   0  0  0  0  0  0  0  0  0  0  0  0
    5.6890    0.4760   19.2130 C   0  0  0  0  0  0  0  0  0  0  0  0
    4.7240    1.4490   19.5020 C   0  0  0  0  0  0  0  0  0  0  0  0
    4.2340    2.2140   18.4360 C   0  0  0  0  0  0  0  0  0  0  0  0
    4.7380    2.0050   17.1450 C   0  0  0  0  0  0  0  0  0  0  0  0
    5.6420    1.0420   16.8560 N   0  0  0  0  0  0  0  0  0  0  0  0
    6.1110    0.3040   17.8800 C   0  0  0  0  0  0  0  0  0  0  0  0
    9.1070    0.4840   23.4230 C   0  0  0  0  0  0  0  0  0  0  0  0
  1  2  1  0
  2  3  1  0
  2  4  1  0
  4  5  2  0
  4  6  1  0
  6  7  1  0
  7  8  1  0
  8  9  1  0
  9 24  2  0
  9 10  1  0
 10 11  2  0
 11 12  1  0
 12 13  2  0
 13 14  1  0
 13 24  1  0
 14 15  1  0
 15 16  2  0
 15 17  1  0
 17 18  1  0
 18 19  2  0
 18 23  1  0
 19 20  1  0
 20 21  2  0
 21 22  1  0
 22 23  2  0
M  END
>  <original SMILES>  (599) 
CC(C)C(=O)OCCc1cccc(NC(=O)Nc2cccnc2)c1

>  <AutoDock Predicted Affinity>  (599) 
-5.917965

>  <ref_pdb>  (599) 
x0434_0

>  <ref_mols>  (599) 
x0434_0

>  <creator>  (599) 
Will Poole

>  <energy minimised>  (599) 
True

$$$$
WPC2339_minimised.pdb
     RDKit          3D

 24 25  0  0  0  0  0  0  0  0999 V2000
    9.8110    3.0160   22.3970 C   0  0  0  0  0  0  0  0  0  0  0  0
   10.5780    4.2690   22.9080 C   0  0  0  0  0  0  0  0  0  0  0  0
   11.9410    4.4540   22.2030 C   0  0  0  0  0  0  0  0  0  0  0  0
   10.7580    4.2460   24.4460 C   0  0  0  0  0  0  0  0  0  0  0  0
   10.9200    2.8500   25.0310 C   0  0  0  0  0  0  0  0  0  0  0  0
   10.1000    2.3740   25.7840 O   0  0  0  0  0  0  0  0  0  0  0  0
   12.0170    2.1440   24.6020 N   0  0  0  0  0  0  0  0  0  0  0  0
   12.1690    0.7090   24.8360 C   0  0  0  0  0  0  0  0  0  0  0  0
   11.5790   -0.0620   23.6850 C   0  0  0  0  0  0  0  0  0  0  0  0
   12.4050   -0.5750   22.6700 C   0  0  0  0  0  0  0  0  0  0  0  0
   11.8350   -1.2780   21.6010 C   0  0  0  0  0  0  0  0  0  0  0  0
   10.4400   -1.3870   21.5130 C   0  0  0  0  0  0  0  0  0  0  0  0
    9.6140   -0.7710   22.4600 C   0  0  0  0  0  0  0  0  0  0  0  0
    8.2430   -0.6020   22.1760 N   0  0  0  0  0  0  0  0  0  0  0  0
    7.7900   -0.0420   21.0090 C   0  0  0  0  0  0  0  0  0  0  0  0
    8.5200    0.3230   20.1060 O   0  0  0  0  0  0  0  0  0  0  0  0
    6.4310    0.0620   20.9160 N   0  0  0  0  0  0  0  0  0  0  0  0
    5.7530    0.5920   19.7910 C   0  0  0  0  0  0  0  0  0  0  0  0
    4.7940    1.5950   19.9690 C   0  0  0  0  0  0  0  0  0  0  0  0
    4.2510    2.1830   18.8180 C   0  0  0  0  0  0  0  0  0  0  0  0
    4.6820    1.7610   17.5510 C   0  0  0  0  0  0  0  0  0  0  0  0
    5.5720    0.7590   17.3680 N   0  0  0  0  0  0  0  0  0  0  0  0
    6.1040    0.2070   18.4760 C   0  0  0  0  0  0  0  0  0  0  0  0
   10.1810   -0.1700   23.5850 C   0  0  0  0  0  0  0  0  0  0  0  0
  1  2  1  0
  2  3  1  0
  2  4  1  0
  4  5  1  0
  5  6  2  0
  5  7  1  0
  7  8  1  0
  8  9  1  0
  9 24  2  0
  9 10  1  0
 10 11  2  0
 11 12  1  0
 12 13  2  0
 13 14  1  0
 13 24  1  0
 14 15  1  0
 15 16  2  0
 15 17  1  0
 17 18  1  0
 18 19  2  0
 18 23  1  0
 19 20  1  0
 20 21  2  0
 21 22  1  0
 22 23  2  0
M  END
>  <original SMILES>  (600) 
CC(C)CC(=O)NCc1cccc(NC(=O)Nc2cccnc2)c1

>  <AutoDock Predicted Affinity>  (600) 
-4.87566

>  <ref_pdb>  (600) 
x0434_0

>  <ref_mols>  (600) 
x0434_0

>  <creator>  (600) 
Will Poole

>  <energy minimised>  (600) 
True

$$$$
WPC1426_minimised.pdb
     RDKit          3D

 22 23  0  0  0  0  0  0  0  0999 V2000
   12.3220    6.0910   24.2560 C   0  0  0  0  0  0  0  0  0  0  0  0
   12.9160    4.8890   23.4770 C   0  0  0  0  0  0  0  0  0  0  0  0
   13.4670    5.3200   22.1040 C   0  0  0  0  0  0  0  0  0  0  0  0
   11.8650    3.7550   23.3230 C   0  0  0  0  0  0  0  0  0  0  0  0
   11.6310    3.0160   24.6520 C   0  0  0  0  0  0  0  0  0  0  0  0
   10.0320    2.1450   24.7650 S   0  0  0  0  0  0  0  0  0  0  0  0
   10.1170    0.7890   23.6260 C   0  0  0  0  0  0  0  0  0  0  0  0
   11.3090    0.1260   23.2810 C   0  0  0  0  0  0  0  0  0  0  0  0
   11.2740   -0.9490   22.3740 C   0  0  0  0  0  0  0  0  0  0  0  0
   10.0500   -1.3470   21.8100 C   0  0  0  0  0  0  0  0  0  0  0  0
    8.8720   -0.6760   22.1610 C   0  0  0  0  0  0  0  0  0  0  0  0
    7.6480   -0.9420   21.5350 N   0  0  0  0  0  0  0  0  0  0  0  0
    7.3740   -0.4930   20.2790 C   0  0  0  0  0  0  0  0  0  0  0  0
    8.2170   -0.2450   19.4380 O   0  0  0  0  0  0  0  0  0  0  0  0
    6.0390   -0.2630   20.1040 N   0  0  0  0  0  0  0  0  0  0  0  0
    5.4890    0.5050   19.0550 C   0  0  0  0  0  0  0  0  0  0  0  0
    4.5340    1.4880   19.3470 C   0  0  0  0  0  0  0  0  0  0  0  0
    4.1090    2.3120   18.2970 C   0  0  0  0  0  0  0  0  0  0  0  0
    4.6690    2.1530   17.0210 C   0  0  0  0  0  0  0  0  0  0  0  0
    5.5690    1.1880   16.7290 N   0  0  0  0  0  0  0  0  0  0  0  0
    5.9650    0.3870   17.7340 C   0  0  0  0  0  0  0  0  0  0  0  0
    8.9060    0.3790   23.0710 C   0  0  0  0  0  0  0  0  0  0  0  0
  1  2  1  0
  2  3  1  0
  2  4  1  0
  4  5  1  0
  5  6  1  0
  6  7  1  0
  7 22  2  0
  7  8  1  0
  8  9  2  0
  9 10  1  0
 10 11  2  0
 11 12  1  0
 11 22  1  0
 12 13  1  0
 13 14  2  0
 13 15  1  0
 15 16  1  0
 16 17  2  0
 16 21  1  0
 17 18  1  0
 18 19  2  0
 19 20  1  0
 20 21  2  0
M  END
>  <original SMILES>  (601) 
CC(C)CCSc1cccc(NC(=O)Nc2cccnc2)c1

>  <AutoDock Predicted Affinity>  (601) 
-5.470659

>  <ref_pdb>  (601) 
x0434_0

>  <ref_mols>  (601) 
x0434_0

>  <creator>  (601) 
Will Poole

>  <energy minimised>  (601) 
True

$$$$
WPC2600_minimised.pdb
     RDKit          3D

 24 25  0  0  0  0  0  0  0  0999 V2000
    9.2100    6.1590   22.7580 C   0  0  0  0  0  0  0  0  0  0  0  0
    9.4720    4.8300   23.4780 C   0  0  0  0  0  0  0  0  0  0  0  0
    8.5820    3.7080   22.8840 C   0  0  0  0  0  0  0  0  0  0  0  0
   10.9700    4.4750   23.4470 C   0  0  0  0  0  0  0  0  0  0  0  0
   11.2440    3.2630   24.2150 N   0  0  0  0  0  0  0  0  0  0  0  0
   12.3500    2.4990   23.9630 C   0  0  0  0  0  0  0  0  0  0  0  0
   13.3250    2.9520   23.4020 O   0  0  0  0  0  0  0  0  0  0  0  0
   12.2590    1.0580   24.4270 C   0  0  0  0  0  0  0  0  0  0  0  0
   11.6380    0.1830   23.3690 C   0  0  0  0  0  0  0  0  0  0  0  0
   12.4520   -0.5340   22.4780 C   0  0  0  0  0  0  0  0  0  0  0  0
   11.8660   -1.3840   21.5330 C   0  0  0  0  0  0  0  0  0  0  0  0
   10.4690   -1.4720   21.4500 C   0  0  0  0  0  0  0  0  0  0  0  0
    9.6580   -0.6760   22.2680 C   0  0  0  0  0  0  0  0  0  0  0  0
    8.2850   -0.5520   21.9790 N   0  0  0  0  0  0  0  0  0  0  0  0
    7.8240   -0.1130   20.7680 C   0  0  0  0  0  0  0  0  0  0  0  0
    8.5410    0.1150   19.8130 O   0  0  0  0  0  0  0  0  0  0  0  0
    6.4720    0.0760   20.7160 N   0  0  0  0  0  0  0  0  0  0  0  0
    5.7870    0.6440   19.6140 C   0  0  0  0  0  0  0  0  0  0  0  0
    4.8380    1.6480   19.8390 C   0  0  0  0  0  0  0  0  0  0  0  0
    4.2870    2.2830   18.7190 C   0  0  0  0  0  0  0  0  0  0  0  0
    4.7140    1.9210   17.4330 C   0  0  0  0  0  0  0  0  0  0  0  0
    5.5860    0.9130   17.2040 N   0  0  0  0  0  0  0  0  0  0  0  0
    6.1150    0.3020   18.2820 C   0  0  0  0  0  0  0  0  0  0  0  0
   10.2400    0.1190   23.2580 C   0  0  0  0  0  0  0  0  0  0  0  0
  1  2  1  0
  2  3  1  0
  2  4  1  0
  4  5  1  0
  5  6  1  0
  6  7  2  0
  6  8  1  0
  8  9  1  0
  9 24  2  0
  9 10  1  0
 10 11  2  0
 11 12  1  0
 12 13  2  0
 13 14  1  0
 13 24  1  0
 14 15  1  0
 15 16  2  0
 15 17  1  0
 17 18  1  0
 18 19  2  0
 18 23  1  0
 19 20  1  0
 20 21  2  0
 21 22  1  0
 22 23  2  0
M  END
>  <original SMILES>  (602) 
CC(C)CNC(=O)Cc1cccc(NC(=O)Nc2cccnc2)c1

>  <AutoDock Predicted Affinity>  (602) 
-5.680055

>  <ref_pdb>  (602) 
x0434_0

>  <ref_mols>  (602) 
x0434_0

>  <creator>  (602) 
Will Poole

>  <energy minimised>  (602) 
True

$$$$
WPC1490_minimised.pdb
     RDKit          3D

 24 25  0  0  0  0  0  0  0  0999 V2000
    8.8980    5.5790   22.1060 C   0  0  0  0  0  0  0  0  0  0  0  0
    9.2840    4.2070   22.6900 C   0  0  0  0  0  0  0  0  0  0  0  0
    8.0370    3.3030   22.8240 C   0  0  0  0  0  0  0  0  0  0  0  0
   10.0680    4.4140   24.0040 C   0  0  0  0  0  0  0  0  0  0  0  0
   10.5680    3.1420   24.4460 O   0  0  0  0  0  0  0  0  0  0  0  0
   11.7770    2.7190   23.9740 C   0  0  0  0  0  0  0  0  0  0  0  0
   12.6240    3.4550   23.5020 O   0  0  0  0  0  0  0  0  0  0  0  0
   12.0570    1.2860   24.4000 C   0  0  0  0  0  0  0  0  0  0  0  0
   11.5500    0.3000   23.3790 C   0  0  0  0  0  0  0  0  0  0  0  0
   12.4330   -0.3860   22.5300 C   0  0  0  0  0  0  0  0  0  0  0  0
   11.9290   -1.3200   21.6150 C   0  0  0  0  0  0  0  0  0  0  0  0
   10.5430   -1.5120   21.5090 C   0  0  0  0  0  0  0  0  0  0  0  0
    9.6620   -0.7600   22.2940 C   0  0  0  0  0  0  0  0  0  0  0  0
    8.2910   -0.7250   21.9750 N   0  0  0  0  0  0  0  0  0  0  0  0
    7.8350   -0.2270   20.7850 C   0  0  0  0  0  0  0  0  0  0  0  0
    8.5610    0.1030   19.8680 O   0  0  0  0  0  0  0  0  0  0  0  0
    6.4760   -0.1010   20.7110 N   0  0  0  0  0  0  0  0  0  0  0  0
    5.7980    0.5070   19.6270 C   0  0  0  0  0  0  0  0  0  0  0  0
    4.8580    1.5140   19.8770 C   0  0  0  0  0  0  0  0  0  0  0  0
    4.3250    2.1920   18.7730 C   0  0  0  0  0  0  0  0  0  0  0  0
    4.7540    1.8610   17.4780 C   0  0  0  0  0  0  0  0  0  0  0  0
    5.6230    0.8570   17.2260 N   0  0  0  0  0  0  0  0  0  0  0  0
    6.1380    0.2080   18.2890 C   0  0  0  0  0  0  0  0  0  0  0  0
   10.1670    0.1040   23.2670 C   0  0  0  0  0  0  0  0  0  0  0  0
  1  2  1  0
  2  3  1  0
  2  4  1  0
  4  5  1  0
  5  6  1  0
  6  7  2  0
  6  8  1  0
  8  9  1  0
  9 24  2  0
  9 10  1  0
 10 11  2  0
 11 12  1  0
 12 13  2  0
 13 14  1  0
 13 24  1  0
 14 15  1  0
 15 16  2  0
 15 17  1  0
 17 18  1  0
 18 19  2  0
 18 23  1  0
 19 20  1  0
 20 21  2  0
 21 22  1  0
 22 23  2  0
M  END
>  <original SMILES>  (603) 
CC(C)COC(=O)Cc1cccc(NC(=O)Nc2cccnc2)c1

>  <AutoDock Predicted Affinity>  (603) 
-5.445715

>  <ref_pdb>  (603) 
x0434_0

>  <ref_mols>  (603) 
x0434_0

>  <creator>  (603) 
Will Poole

>  <energy minimised>  (603) 
True

$$$$
WPC1296_minimised.pdb
     RDKit          3D

 21 22  0  0  0  0  0  0  0  0999 V2000
    8.7220    3.8940   22.5410 C   0  0  0  0  0  0  0  0  0  0  0  0
    9.5930    4.5870   23.6100 C   0  0  0  0  0  0  0  0  0  0  0  0
   10.3840    5.7840   23.0520 C   0  0  0  0  0  0  0  0  0  0  0  0
   10.4880    3.6070   24.4130 C   0  0  0  0  0  0  0  0  0  0  0  0
   12.0310    3.0810   23.5330 S   0  0  0  0  0  0  0  0  0  0  0  0
   11.8340    1.3770   23.0380 C   0  0  0  0  0  0  0  0  0  0  0  0
   12.9710    0.5930   22.7800 C   0  0  0  0  0  0  0  0  0  0  0  0
   12.8320   -0.7130   22.2780 C   0  0  0  0  0  0  0  0  0  0  0  0
   11.5510   -1.2390   22.0340 C   0  0  0  0  0  0  0  0  0  0  0  0
   10.4180   -0.4510   22.2740 C   0  0  0  0  0  0  0  0  0  0  0  0
    9.1370   -0.8740   21.8600 N   0  0  0  0  0  0  0  0  0  0  0  0
    8.3980   -0.1750   20.9430 C   0  0  0  0  0  0  0  0  0  0  0  0
    8.8140    0.8140   20.3750 O   0  0  0  0  0  0  0  0  0  0  0  0
    7.1390   -0.6520   20.6980 N   0  0  0  0  0  0  0  0  0  0  0  0
    6.2770   -0.0270   19.7600 C   0  0  0  0  0  0  0  0  0  0  0  0
    5.4410    1.0240   20.1670 C   0  0  0  0  0  0  0  0  0  0  0  0
    4.7560    1.7400   19.1740 C   0  0  0  0  0  0  0  0  0  0  0  0
    4.9360    1.3990   17.8240 C   0  0  0  0  0  0  0  0  0  0  0  0
    5.7200    0.3720   17.4270 N   0  0  0  0  0  0  0  0  0  0  0  0
    6.3920   -0.3020   18.3830 C   0  0  0  0  0  0  0  0  0  0  0  0
   10.5640    0.8390   22.7970 C   0  0  0  0  0  0  0  0  0  0  0  0
  1  2  1  0
  2  3  1  0
  2  4  1  0
  4  5  1  0
  5  6  1  0
  6 21  2  0
  6  7  1  0
  7  8  2  0
  8  9  1  0
  9 10  2  0
 10 11  1  0
 10 21  1  0
 11 12  1  0
 12 13  2  0
 12 14  1  0
 14 15  1  0
 15 16  2  0
 15 20  1  0
 16 17  1  0
 17 18  2  0
 18 19  1  0
 19 20  2  0
M  END
>  <original SMILES>  (604) 
CC(C)CSc1cccc(NC(=O)Nc2cccnc2)c1

>  <AutoDock Predicted Affinity>  (604) 
-5.69869

>  <ref_pdb>  (604) 
x0434_0

>  <ref_mols>  (604) 
x0434_0

>  <creator>  (604) 
Will Poole

>  <energy minimised>  (604) 
True

$$$$
WPC1906_minimised.pdb
     RDKit          3D

 23 24  0  0  0  0  0  0  0  0999 V2000
    9.9400    6.0780   23.3990 C   0  0  0  0  0  0  0  0  0  0  0  0
   10.8810    5.4030   24.4130 C   0  0  0  0  0  0  0  0  0  0  0  0
   12.2520    6.1000   24.5180 C   0  0  0  0  0  0  0  0  0  0  0  0
   11.0110    3.9750   24.1100 N   0  0  0  0  0  0  0  0  0  0  0  0
   11.8710    3.3890   23.2120 C   0  0  0  0  0  0  0  0  0  0  0  0
   12.0820    3.9240   22.0880 N   0  0  0  0  0  0  0  0  0  0  0  0
   12.4930    2.0820   23.6310 C   0  0  0  0  0  0  0  0  0  0  0  0
   11.8900    0.8670   22.9490 C   0  0  0  0  0  0  0  0  0  0  0  0
   12.7240   -0.1420   22.4400 C   0  0  0  0  0  0  0  0  0  0  0  0
   12.1680   -1.2680   21.8180 C   0  0  0  0  0  0  0  0  0  0  0  0
   10.7740   -1.3830   21.6930 C   0  0  0  0  0  0  0  0  0  0  0  0
    9.9410   -0.3670   22.1780 C   0  0  0  0  0  0  0  0  0  0  0  0
    8.5520   -0.4040   21.9390 N   0  0  0  0  0  0  0  0  0  0  0  0
    7.9940   -0.2030   20.7070 C   0  0  0  0  0  0  0  0  0  0  0  0
    8.6350   -0.1390   19.6790 O   0  0  0  0  0  0  0  0  0  0  0  0
    6.6370   -0.0260   20.7310 N   0  0  0  0  0  0  0  0  0  0  0  0
    5.8810    0.4860   19.6480 C   0  0  0  0  0  0  0  0  0  0  0  0
    4.9550    1.5080   19.8920 C   0  0  0  0  0  0  0  0  0  0  0  0
    4.3310    2.1000   18.7880 C   0  0  0  0  0  0  0  0  0  0  0  0
    4.6700    1.6830   17.4930 C   0  0  0  0  0  0  0  0  0  0  0  0
    5.5190    0.6600   17.2490 N   0  0  0  0  0  0  0  0  0  0  0  0
    6.1170    0.0870   18.3130 C   0  0  0  0  0  0  0  0  0  0  0  0
   10.4960    0.7480   22.8170 C   0  0  0  0  0  0  0  0  0  0  0  0
  1  2  1  0
  2  3  1  0
  2  4  1  0
  4  5  1  0
  5  6  2  0
  5  7  1  0
  7  8  1  0
  8 23  2  0
  8  9  1  0
  9 10  2  0
 10 11  1  0
 11 12  2  0
 12 13  1  0
 12 23  1  0
 13 14  1  0
 14 15  2  0
 14 16  1  0
 16 17  1  0
 17 18  2  0
 17 22  1  0
 18 19  1  0
 19 20  2  0
 20 21  1  0
 21 22  2  0
M  END
>  <original SMILES>  (605) 
CC(C)NC(=N)Cc1cccc(NC(=O)Nc2cccnc2)c1

>  <AutoDock Predicted Affinity>  (605) 
-5.828585

>  <ref_pdb>  (605) 
x0434_0

>  <ref_mols>  (605) 
x0434_0

>  <creator>  (605) 
Will Poole

>  <energy minimised>  (605) 
True

$$$$
WPC1108_minimised.pdb
     RDKit          3D

 23 24  0  0  1  0  0  0  0  0999 V2000
   12.5860    6.1450   24.6350 C   0  0  0  0  0  0  0  0  0  0  0  0
   12.5970    5.1170   23.4810 C   0  0  0  0  0  0  0  0  0  0  0  0
   13.6620    5.4320   22.4110 C   0  0  0  0  0  0  0  0  0  0  0  0
   11.2580    5.0110   22.8820 N   0  0  0  0  0  0  0  0  0  0  0  0
   10.1780    4.4310   23.7080 C   0  0  1  0  0  0  0  0  0  0  0  0
    8.8990    4.3370   22.8510 C   0  0  0  0  0  0  0  0  0  0  0  0
   10.5510    3.0860   24.4090 C   0  0  0  0  0  0  0  0  0  0  0  0
   10.7190    1.8620   23.5210 C   0  0  0  0  0  0  0  0  0  0  0  0
   11.9870    1.3940   23.1260 C   0  0  0  0  0  0  0  0  0  0  0  0
   12.1000    0.2320   22.3410 C   0  0  0  0  0  0  0  0  0  0  0  0
   10.9450   -0.4620   21.9390 C   0  0  0  0  0  0  0  0  0  0  0  0
    9.6850   -0.0040   22.3510 C   0  0  0  0  0  0  0  0  0  0  0  0
    8.4900   -0.5900   21.8970 N   0  0  0  0  0  0  0  0  0  0  0  0
    8.0050   -0.3500   20.6450 C   0  0  0  0  0  0  0  0  0  0  0  0
    8.6960   -0.0340   19.6980 O   0  0  0  0  0  0  0  0  0  0  0  0
    6.6390   -0.3890   20.5770 N   0  0  0  0  0  0  0  0  0  0  0  0
    5.9080    0.2420   19.5420 C   0  0  0  0  0  0  0  0  0  0  0  0
    4.9920    1.2480   19.8710 C   0  0  0  0  0  0  0  0  0  0  0  0
    4.4200    1.9790   18.8210 C   0  0  0  0  0  0  0  0  0  0  0  0
    4.7940    1.7000   17.4990 C   0  0  0  0  0  0  0  0  0  0  0  0
    5.6480    0.7040   17.1740 N   0  0  0  0  0  0  0  0  0  0  0  0
    6.1990    0.0020   18.1840 C   0  0  0  0  0  0  0  0  0  0  0  0
    9.5780    1.1370   23.1500 C   0  0  0  0  0  0  0  0  0  0  0  0
  1  2  1  0
  2  3  1  0
  2  4  1  0
  4  5  1  0
  5  6  1  6
  5  7  1  0
  7  8  1  0
  8 23  2  0
  8  9  1  0
  9 10  2  0
 10 11  1  0
 11 12  2  0
 12 13  1  0
 12 23  1  0
 13 14  1  0
 14 15  2  0
 14 16  1  0
 16 17  1  0
 17 18  2  0
 17 22  1  0
 18 19  1  0
 19 20  2  0
 20 21  1  0
 21 22  2  0
M  END
>  <original SMILES>  (606) 
CC(C)NC(C)Cc1cccc(NC(=O)Nc2cccnc2)c1

>  <AutoDock Predicted Affinity>  (606) 
-6.08882

>  <ref_pdb>  (606) 
x0434_0

>  <ref_mols>  (606) 
x0434_0

>  <creator>  (606) 
Will Poole

>  <energy minimised>  (606) 
True

$$$$
WPC2163_minimised.pdb
     RDKit          3D

 21 22  0  0  0  0  0  0  0  0999 V2000
   11.8330    6.3050   24.6320 C   0  0  0  0  0  0  0  0  0  0  0  0
   11.8590    4.8810   24.0630 C   0  0  0  0  0  0  0  0  0  0  0  0
   12.0420    4.8990   22.5420 C   0  0  0  0  0  0  0  0  0  0  0  0
   10.6010    4.2160   24.4190 N   0  0  0  0  0  0  0  0  0  0  0  0
   10.7230    2.8320   24.9020 C   0  0  0  0  0  0  0  0  0  0  0  0
   10.7750    1.7760   23.8190 C   0  0  0  0  0  0  0  0  0  0  0  0
   11.9970    1.3060   23.3020 C   0  0  0  0  0  0  0  0  0  0  0  0
   12.0080    0.2710   22.3510 C   0  0  0  0  0  0  0  0  0  0  0  0
   10.7980   -0.3000   21.9190 C   0  0  0  0  0  0  0  0  0  0  0  0
    9.5810    0.1690   22.4390 C   0  0  0  0  0  0  0  0  0  0  0  0
    8.3410   -0.3210   21.9860 N   0  0  0  0  0  0  0  0  0  0  0  0
    7.8700   -0.1270   20.7210 C   0  0  0  0  0  0  0  0  0  0  0  0
    8.5650    0.1740   19.7730 O   0  0  0  0  0  0  0  0  0  0  0  0
    6.5070   -0.2080   20.6340 N   0  0  0  0  0  0  0  0  0  0  0  0
    5.7740    0.3510   19.5630 C   0  0  0  0  0  0  0  0  0  0  0  0
    4.8240    1.3430   19.8350 C   0  0  0  0  0  0  0  0  0  0  0  0
    4.2490    2.0090   18.7450 C   0  0  0  0  0  0  0  0  0  0  0  0
    4.6470    1.6770   17.4430 C   0  0  0  0  0  0  0  0  0  0  0  0
    5.5330    0.6920   17.1710 N   0  0  0  0  0  0  0  0  0  0  0  0
    6.0910    0.0560   18.2200 C   0  0  0  0  0  0  0  0  0  0  0  0
    9.5740    1.2000   23.3840 C   0  0  0  0  0  0  0  0  0  0  0  0
  1  2  1  0
  2  3  1  0
  2  4  1  0
  4  5  1  0
  5  6  1  0
  6 21  2  0
  6  7  1  0
  7  8  2  0
  8  9  1  0
  9 10  2  0
 10 11  1  0
 10 21  1  0
 11 12  1  0
 12 13  2  0
 12 14  1  0
 14 15  1  0
 15 16  2  0
 15 20  1  0
 16 17  1  0
 17 18  2  0
 18 19  1  0
 19 20  2  0
M  END
>  <original SMILES>  (607) 
CC(C)NCc1cccc(NC(=O)Nc2cccnc2)c1

>  <AutoDock Predicted Affinity>  (607) 
-5.68769

>  <ref_pdb>  (607) 
x0434_0

>  <ref_mols>  (607) 
x0434_0

>  <creator>  (607) 
Will Poole

>  <energy minimised>  (607) 
True

$$$$
WPC2475_minimised.pdb
     RDKit          3D

 23 24  0  0  0  0  0  0  0  0999 V2000
   13.6560    5.3330   22.3610 C   0  0  0  0  0  0  0  0  0  0  0  0
   12.3600    5.1560   23.1760 C   0  0  0  0  0  0  0  0  0  0  0  0
   12.3510    6.0350   24.4470 C   0  0  0  0  0  0  0  0  0  0  0  0
   12.3230    3.7750   23.5650 O   0  0  0  0  0  0  0  0  0  0  0  0
   11.1630    3.2140   24.0090 C   0  0  0  0  0  0  0  0  0  0  0  0
   10.1470    3.8350   24.2730 O   0  0  0  0  0  0  0  0  0  0  0  0
   11.4150    1.7870   24.4730 C   0  0  0  0  0  0  0  0  0  0  0  0
   11.0440    0.7410   23.4460 C   0  0  0  0  0  0  0  0  0  0  0  0
   12.0380   -0.0260   22.8140 C   0  0  0  0  0  0  0  0  0  0  0  0
   11.6780   -1.0450   21.9190 C   0  0  0  0  0  0  0  0  0  0  0  0
   10.3230   -1.2690   21.6330 C   0  0  0  0  0  0  0  0  0  0  0  0
    9.3370   -0.4670   22.2240 C   0  0  0  0  0  0  0  0  0  0  0  0
    7.9960   -0.5590   21.8110 N   0  0  0  0  0  0  0  0  0  0  0  0
    7.5930   -0.2580   20.5430 C   0  0  0  0  0  0  0  0  0  0  0  0
    8.3510   -0.1340   19.6000 O   0  0  0  0  0  0  0  0  0  0  0  0
    6.2460   -0.0500   20.4490 N   0  0  0  0  0  0  0  0  0  0  0  0
    5.6050    0.5840   19.3600 C   0  0  0  0  0  0  0  0  0  0  0  0
    4.6640    1.5880   19.6170 C   0  0  0  0  0  0  0  0  0  0  0  0
    4.1540    2.2970   18.5220 C   0  0  0  0  0  0  0  0  0  0  0  0
    4.6180    2.0060   17.2310 C   0  0  0  0  0  0  0  0  0  0  0  0
    5.4920    1.0070   16.9720 N   0  0  0  0  0  0  0  0  0  0  0  0
    5.9740    0.3190   18.0240 C   0  0  0  0  0  0  0  0  0  0  0  0
    9.6940    0.5240   23.1430 C   0  0  0  0  0  0  0  0  0  0  0  0
  1  2  1  0
  2  3  1  0
  2  4  1  0
  4  5  1  0
  5  6  2  0
  5  7  1  0
  7  8  1  0
  8 23  2  0
  8  9  1  0
  9 10  2  0
 10 11  1  0
 11 12  2  0
 12 13  1  0
 12 23  1  0
 13 14  1  0
 14 15  2  0
 14 16  1  0
 16 17  1  0
 17 18  2  0
 17 22  1  0
 18 19  1  0
 19 20  2  0
 20 21  1  0
 21 22  2  0
M  END
>  <original SMILES>  (608) 
CC(C)OC(=O)Cc1cccc(NC(=O)Nc2cccnc2)c1

>  <AutoDock Predicted Affinity>  (608) 
-6.31188

>  <ref_pdb>  (608) 
x0434_0

>  <ref_mols>  (608) 
x0434_0

>  <creator>  (608) 
Will Poole

>  <energy minimised>  (608) 
True

$$$$
WPC2602_minimised.pdb
     RDKit          3D

 20 21  0  0  0  0  0  0  0  0999 V2000
   10.2850    5.5960   23.3650 C   0  0  0  0  0  0  0  0  0  0  0  0
   11.3790    4.5180   23.2280 C   0  0  0  0  0  0  0  0  0  0  0  0
   12.8100    5.0890   23.2870 C   0  0  0  0  0  0  0  0  0  0  0  0
   11.1520    3.2800   24.5580 S   0  0  0  0  0  0  0  0  0  0  0  0
   11.0590    1.7730   23.6290 C   0  0  0  0  0  0  0  0  0  0  0  0
   12.2150    1.1310   23.1580 C   0  0  0  0  0  0  0  0  0  0  0  0
   12.0980   -0.0100   22.3440 C   0  0  0  0  0  0  0  0  0  0  0  0
   10.8250   -0.5020   22.0040 C   0  0  0  0  0  0  0  0  0  0  0  0
    9.6730    0.1460   22.4810 C   0  0  0  0  0  0  0  0  0  0  0  0
    8.3840   -0.2410   22.0670 N   0  0  0  0  0  0  0  0  0  0  0  0
    7.9110   -0.0290   20.8040 C   0  0  0  0  0  0  0  0  0  0  0  0
    8.6170    0.2230   19.8510 O   0  0  0  0  0  0  0  0  0  0  0  0
    6.5460   -0.0460   20.7140 N   0  0  0  0  0  0  0  0  0  0  0  0
    5.8300    0.4860   19.6150 C   0  0  0  0  0  0  0  0  0  0  0  0
    4.8780    1.4870   19.8440 C   0  0  0  0  0  0  0  0  0  0  0  0
    4.3130    2.1180   18.7290 C   0  0  0  0  0  0  0  0  0  0  0  0
    4.7230    1.7450   17.4410 C   0  0  0  0  0  0  0  0  0  0  0  0
    5.6050    0.7470   17.2090 N   0  0  0  0  0  0  0  0  0  0  0  0
    6.1550    0.1460   18.2830 C   0  0  0  0  0  0  0  0  0  0  0  0
    9.7940    1.2770   23.2970 C   0  0  0  0  0  0  0  0  0  0  0  0
  1  2  1  0
  2  3  1  0
  2  4  1  0
  4  5  1  0
  5 20  2  0
  5  6  1  0
  6  7  2  0
  7  8  1  0
  8  9  2  0
  9 10  1  0
  9 20  1  0
 10 11  1  0
 11 12  2  0
 11 13  1  0
 13 14  1  0
 14 15  2  0
 14 19  1  0
 15 16  1  0
 16 17  2  0
 17 18  1  0
 18 19  2  0
M  END
>  <original SMILES>  (609) 
CC(C)Sc1cccc(NC(=O)Nc2cccnc2)c1

>  <AutoDock Predicted Affinity>  (609) 
-5.42514

>  <ref_pdb>  (609) 
x0434_0

>  <ref_mols>  (609) 
x0434_0

>  <creator>  (609) 
Will Poole

>  <energy minimised>  (609) 
True

$$$$
WPC1100_minimised.pdb
     RDKit          3D

 24 25  0  0  0  0  0  0  0  0999 V2000
   10.1260    4.6610   23.5010 C   0  0  0  0  0  0  0  0  0  0  0  0
   11.1960    3.7460   24.0640 C   0  0  0  0  0  0  0  0  0  0  0  0
   10.6980    2.4500   24.6600 C   0  0  0  0  0  0  0  0  0  0  0  0
   10.7040    1.2980   23.6770 C   0  0  0  0  0  0  0  0  0  0  0  0
   11.9140    0.7720   23.1880 C   0  0  0  0  0  0  0  0  0  0  0  0
   11.9010   -0.2990   22.2780 C   0  0  0  0  0  0  0  0  0  0  0  0
   10.6750   -0.8420   21.8570 C   0  0  0  0  0  0  0  0  0  0  0  0
    9.4720   -0.3100   22.3440 C   0  0  0  0  0  0  0  0  0  0  0  0
    8.2240   -0.7330   21.8560 N   0  0  0  0  0  0  0  0  0  0  0  0
    7.7790   -0.4080   20.6080 C   0  0  0  0  0  0  0  0  0  0  0  0
    8.5060   -0.0880   19.6890 O   0  0  0  0  0  0  0  0  0  0  0  0
    6.4150   -0.3850   20.5180 N   0  0  0  0  0  0  0  0  0  0  0  0
    5.7210    0.2750   19.4780 C   0  0  0  0  0  0  0  0  0  0  0  0
    4.7900    1.2700   19.8030 C   0  0  0  0  0  0  0  0  0  0  0  0
    4.2470    2.0220   18.7520 C   0  0  0  0  0  0  0  0  0  0  0  0
    4.6580    1.7670   17.4350 C   0  0  0  0  0  0  0  0  0  0  0  0
    5.5270    0.7830   17.1130 N   0  0  0  0  0  0  0  0  0  0  0  0
    6.0530    0.0650   18.1240 C   0  0  0  0  0  0  0  0  0  0  0  0
    9.4870    0.7500   23.2540 C   0  0  0  0  0  0  0  0  0  0  0  0
   12.4410    4.0520   24.1780 N   0  0  0  0  0  0  0  0  0  0  0  0
   13.0180    5.1670   23.6210 N   0  0  0  0  0  0  0  0  0  0  0  0
   13.2190    6.3670   24.2650 C   0  0  0  0  0  0  0  0  0  0  0  0
   12.7050    6.4730   25.5220 N   0  0  0  0  0  0  0  0  0  0  0  0
   13.9960    7.6300   23.5520 S   0  0  0  0  0  0  0  0  0  0  0  0
  1  2  1  0
  2 20  2  0
  2  3  1  0
  3  4  1  0
  4 19  2  0
  4  5  1  0
  5  6  2  0
  6  7  1  0
  7  8  2  0
  8  9  1  0
  8 19  1  0
  9 10  1  0
 10 11  2  0
 10 12  1  0
 12 13  1  0
 13 14  2  0
 13 18  1  0
 14 15  1  0
 15 16  2  0
 16 17  1  0
 17 18  2  0
 20 21  1  0
 21 22  1  0
 22 23  1  0
 22 24  2  0
M  END
>  <original SMILES>  (610) 
CC(Cc1cccc(NC(=O)Nc2cccnc2)c1)=NNC(N)=S

>  <AutoDock Predicted Affinity>  (610) 
-4.0969

>  <ref_pdb>  (610) 
x0434_0

>  <ref_mols>  (610) 
x0434_0

>  <creator>  (610) 
Will Poole

>  <energy minimised>  (610) 
True

$$$$
WPC1748_minimised.pdb
     RDKit          3D

 22 23  0  0  1  0  0  0  0  0999 V2000
   12.5650    4.6590   22.6260 C   0  0  0  0  0  0  0  0  0  0  0  0
   11.4480    4.7780   23.6890 C   0  0  2  0  0  0  0  0  0  0  0  0
   11.0620    3.4320   24.3660 C   0  0  0  0  0  0  0  0  0  0  0  0
   10.9620    2.1950   23.4840 C   0  0  0  0  0  0  0  0  0  0  0  0
   12.1150    1.4710   23.1220 C   0  0  0  0  0  0  0  0  0  0  0  0
   12.0090    0.2900   22.3670 C   0  0  0  0  0  0  0  0  0  0  0  0
   10.7430   -0.1880   21.9920 C   0  0  0  0  0  0  0  0  0  0  0  0
    9.5920    0.5120   22.3840 C   0  0  0  0  0  0  0  0  0  0  0  0
    8.3090    0.0690   22.0110 N   0  0  0  0  0  0  0  0  0  0  0  0
    7.8540    0.0650   20.7270 C   0  0  0  0  0  0  0  0  0  0  0  0
    8.5740    0.1730   19.7550 O   0  0  0  0  0  0  0  0  0  0  0  0
    6.4910    0.0220   20.6390 N   0  0  0  0  0  0  0  0  0  0  0  0
    5.7700    0.5240   19.5320 C   0  0  0  0  0  0  0  0  0  0  0  0
    4.8040    1.5110   19.7610 C   0  0  0  0  0  0  0  0  0  0  0  0
    4.2390    2.1390   18.6450 C   0  0  0  0  0  0  0  0  0  0  0  0
    4.6690    1.7830   17.3590 C   0  0  0  0  0  0  0  0  0  0  0  0
    5.5620    0.7940   17.1280 N   0  0  0  0  0  0  0  0  0  0  0  0
    6.1060    0.1890   18.2030 C   0  0  0  0  0  0  0  0  0  0  0  0
    9.7010    1.6990   23.1200 C   0  0  0  0  0  0  0  0  0  0  0  0
   10.2350    5.5990   23.2270 C   0  0  0  0  0  0  0  0  0  0  0  0
    9.9810    6.6680   23.7390 O   0  0  0  0  0  0  0  0  0  0  0  0
    9.2640    4.9110   22.6150 O   0  0  0  0  0  0  0  0  0  0  0  0
  2  1  1  6
  2 20  1  0
  2  3  1  0
  3  4  1  0
  4 19  2  0
  4  5  1  0
  5  6  2  0
  6  7  1  0
  7  8  2  0
  8  9  1  0
  8 19  1  0
  9 10  1  0
 10 11  2  0
 10 12  1  0
 12 13  1  0
 13 14  2  0
 13 18  1  0
 14 15  1  0
 15 16  2  0
 16 17  1  0
 17 18  2  0
 20 21  2  0
 20 22  1  0
M  END
>  <original SMILES>  (611) 
CC(Cc1cccc(NC(=O)Nc2cccnc2)c1)C(=O)O

>  <AutoDock Predicted Affinity>  (611) 
-5.79208

>  <ref_pdb>  (611) 
x0434_0

>  <ref_mols>  (611) 
x0434_0

>  <creator>  (611) 
Will Poole

>  <energy minimised>  (611) 
True

$$$$
WPC1558_minimised.pdb
     RDKit          3D

 22 23  0  0  1  0  0  0  0  0999 V2000
    9.6290    4.1810   23.3260 C   0  0  0  0  0  0  0  0  0  0  0  0
   10.6300    3.9370   24.4780 C   0  0  1  0  0  0  0  0  0  0  0  0
   10.7910    2.4390   24.8470 C   0  0  0  0  0  0  0  0  0  0  0  0
   10.7850    1.3970   23.7400 C   0  0  0  0  0  0  0  0  0  0  0  0
   11.9820    0.8490   23.2400 C   0  0  0  0  0  0  0  0  0  0  0  0
   11.9440   -0.1710   22.2740 C   0  0  0  0  0  0  0  0  0  0  0  0
   10.7070   -0.6580   21.8200 C   0  0  0  0  0  0  0  0  0  0  0  0
    9.5150   -0.1220   22.3300 C   0  0  0  0  0  0  0  0  0  0  0  0
    8.2560   -0.5180   21.8440 N   0  0  0  0  0  0  0  0  0  0  0  0
    7.8160   -0.2330   20.5850 C   0  0  0  0  0  0  0  0  0  0  0  0
    8.5410    0.0700   19.6590 O   0  0  0  0  0  0  0  0  0  0  0  0
    6.4530   -0.2270   20.4850 N   0  0  0  0  0  0  0  0  0  0  0  0
    5.7570    0.4030   19.4290 C   0  0  0  0  0  0  0  0  0  0  0  0
    4.8200    1.4010   19.7260 C   0  0  0  0  0  0  0  0  0  0  0  0
    4.2790    2.1250   18.6560 C   0  0  0  0  0  0  0  0  0  0  0  0
    4.7030    1.8490   17.3480 C   0  0  0  0  0  0  0  0  0  0  0  0
    5.5760    0.8610   17.0520 N   0  0  0  0  0  0  0  0  0  0  0  0
    6.0960    0.1640   18.0810 C   0  0  0  0  0  0  0  0  0  0  0  0
    9.5570    0.8920   23.2910 C   0  0  0  0  0  0  0  0  0  0  0  0
   11.9390    4.6170   24.2900 N   0  0  0  0  0  0  0  0  0  0  0  0
   12.6030    4.3820   22.9900 C   0  0  0  0  0  0  0  0  0  0  0  0
   11.9100    6.0480   24.6420 C   0  0  0  0  0  0  0  0  0  0  0  0
  2  1  1  6
  2 20  1  0
  2  3  1  0
  3  4  1  0
  4 19  2  0
  4  5  1  0
  5  6  2  0
  6  7  1  0
  7  8  2  0
  8  9  1  0
  8 19  1  0
  9 10  1  0
 10 11  2  0
 10 12  1  0
 12 13  1  0
 13 14  2  0
 13 18  1  0
 14 15  1  0
 15 16  2  0
 16 17  1  0
 17 18  2  0
 20 21  1  0
 20 22  1  0
M  END
>  <original SMILES>  (612) 
CC(Cc1cccc(NC(=O)Nc2cccnc2)c1)N(C)C

>  <AutoDock Predicted Affinity>  (612) 
-5.579085

>  <ref_pdb>  (612) 
x0434_0

>  <ref_mols>  (612) 
x0434_0

>  <creator>  (612) 
Will Poole

>  <energy minimised>  (612) 
True

$$$$
WPC1937_minimised.pdb
     RDKit          3D

 23 24  0  0  1  0  0  0  0  0999 V2000
   12.8070    4.3310   22.9890 C   0  0  0  0  0  0  0  0  0  0  0  0
   11.4980    4.2220   23.7920 C   0  0  2  0  0  0  0  0  0  0  0  0
   11.2520    2.8340   24.4250 C   0  0  0  0  0  0  0  0  0  0  0  0
   11.1110    1.6620   23.4670 C   0  0  0  0  0  0  0  0  0  0  0  0
   12.2420    0.9670   23.0010 C   0  0  0  0  0  0  0  0  0  0  0  0
   12.0890   -0.1580   22.1720 C   0  0  0  0  0  0  0  0  0  0  0  0
   10.8020   -0.5980   21.8210 C   0  0  0  0  0  0  0  0  0  0  0  0
    9.6750    0.0900   22.2950 C   0  0  0  0  0  0  0  0  0  0  0  0
    8.3750   -0.2890   21.9110 N   0  0  0  0  0  0  0  0  0  0  0  0
    7.8720   -0.0850   20.6600 C   0  0  0  0  0  0  0  0  0  0  0  0
    8.5530    0.1930   19.6930 O   0  0  0  0  0  0  0  0  0  0  0  0
    6.5070   -0.1280   20.6040 N   0  0  0  0  0  0  0  0  0  0  0  0
    5.7650    0.4320   19.5380 C   0  0  0  0  0  0  0  0  0  0  0  0
    4.8300    1.4360   19.8180 C   0  0  0  0  0  0  0  0  0  0  0  0
    4.2580    2.1120   18.7320 C   0  0  0  0  0  0  0  0  0  0  0  0
    4.6510    1.7820   17.4270 C   0  0  0  0  0  0  0  0  0  0  0  0
    5.5190    0.7830   17.1490 N   0  0  0  0  0  0  0  0  0  0  0  0
    6.0670    0.1320   18.1930 C   0  0  0  0  0  0  0  0  0  0  0  0
    9.8310    1.2150   23.1130 C   0  0  0  0  0  0  0  0  0  0  0  0
   10.3760    4.5880   22.9390 N   0  0  0  0  0  0  0  0  0  0  0  0
    9.6960    5.7550   23.0390 C   0  0  0  0  0  0  0  0  0  0  0  0
    8.7130    5.8660   22.1300 N   0  0  0  0  0  0  0  0  0  0  0  0
    9.9260    6.6190   23.8490 O   0  0  0  0  0  0  0  0  0  0  0  0
  2  1  1  6
  2 20  1  0
  2  3  1  0
  3  4  1  0
  4 19  2  0
  4  5  1  0
  5  6  2  0
  6  7  1  0
  7  8  2  0
  8  9  1  0
  8 19  1  0
  9 10  1  0
 10 11  2  0
 10 12  1  0
 12 13  1  0
 13 14  2  0
 13 18  1  0
 14 15  1  0
 15 16  2  0
 16 17  1  0
 17 18  2  0
 20 21  1  0
 21 22  1  0
 21 23  2  0
M  END
>  <original SMILES>  (613) 
CC(Cc1cccc(NC(=O)Nc2cccnc2)c1)NC(N)=O

>  <AutoDock Predicted Affinity>  (613) 
-6.09392

>  <ref_pdb>  (613) 
x0434_0

>  <ref_mols>  (613) 
x0434_0

>  <creator>  (613) 
Will Poole

>  <energy minimised>  (613) 
True

$$$$
WPC2443_minimised.pdb
     RDKit          3D

 22 23  0  0  1  0  0  0  0  0999 V2000
   12.4760    4.5610   23.0820 C   0  0  0  0  0  0  0  0  0  0  0  0
   11.1500    4.4130   23.8540 C   0  0  2  0  0  0  0  0  0  0  0  0
   10.9990    3.0270   24.5180 C   0  0  0  0  0  0  0  0  0  0  0  0
   10.9480    1.8290   23.5830 C   0  0  0  0  0  0  0  0  0  0  0  0
   12.1260    1.1980   23.1400 C   0  0  0  0  0  0  0  0  0  0  0  0
   12.0530    0.0660   22.3090 C   0  0  0  0  0  0  0  0  0  0  0  0
   10.8000   -0.4460   21.9310 C   0  0  0  0  0  0  0  0  0  0  0  0
    9.6270    0.1740   22.3880 C   0  0  0  0  0  0  0  0  0  0  0  0
    8.3560   -0.2680   21.9740 N   0  0  0  0  0  0  0  0  0  0  0  0
    7.8720   -0.0730   20.7140 C   0  0  0  0  0  0  0  0  0  0  0  0
    8.5650    0.2200   19.7610 O   0  0  0  0  0  0  0  0  0  0  0  0
    6.5090   -0.1420   20.6330 N   0  0  0  0  0  0  0  0  0  0  0  0
    5.7760    0.4140   19.5590 C   0  0  0  0  0  0  0  0  0  0  0  0
    4.8270    1.4080   19.8270 C   0  0  0  0  0  0  0  0  0  0  0  0
    4.2630    2.0800   18.7350 C   0  0  0  0  0  0  0  0  0  0  0  0
    4.6720    1.7530   17.4340 C   0  0  0  0  0  0  0  0  0  0  0  0
    5.5530    0.7630   17.1670 N   0  0  0  0  0  0  0  0  0  0  0  0
    6.0980    0.1190   18.2170 C   0  0  0  0  0  0  0  0  0  0  0  0
    9.7030    1.3050   23.2090 C   0  0  0  0  0  0  0  0  0  0  0  0
   10.0270    4.6890   22.9600 N   0  0  0  0  0  0  0  0  0  0  0  0
    9.4590    5.9290   22.8160 C   0  0  0  0  0  0  0  0  0  0  0  0
    9.7550    6.8540   23.5480 O   0  0  0  0  0  0  0  0  0  0  0  0
  2  1  1  6
  2 20  1  0
  2  3  1  0
  3  4  1  0
  4 19  2  0
  4  5  1  0
  5  6  2  0
  6  7  1  0
  7  8  2  0
  8  9  1  0
  8 19  1  0
  9 10  1  0
 10 11  2  0
 10 12  1  0
 12 13  1  0
 13 14  2  0
 13 18  1  0
 14 15  1  0
 15 16  2  0
 16 17  1  0
 17 18  2  0
 20 21  1  0
 21 22  2  0
M  END
>  <original SMILES>  (614) 
CC(Cc1cccc(NC(=O)Nc2cccnc2)c1)NC=O

>  <AutoDock Predicted Affinity>  (614) 
-5.59383

>  <ref_pdb>  (614) 
x0434_0

>  <ref_mols>  (614) 
x0434_0

>  <creator>  (614) 
Will Poole

>  <energy minimised>  (614) 
True

$$$$
WPC1333_minimised.pdb
     RDKit          3D

 24 25  0  0  1  0  0  0  0  0999 V2000
   12.2400    4.8370   23.4220 C   0  0  0  0  0  0  0  0  0  0  0  0
   11.4370    3.5490   23.1460 C   0  0  1  0  0  0  0  0  0  0  0  0
   12.2090    2.3090   23.6630 C   0  0  0  0  0  0  0  0  0  0  0  0
   11.7870    0.9880   23.0350 C   0  0  0  0  0  0  0  0  0  0  0  0
   12.7500    0.1200   22.4880 C   0  0  0  0  0  0  0  0  0  0  0  0
   12.3520   -1.0730   21.8610 C   0  0  0  0  0  0  0  0  0  0  0  0
   10.9880   -1.3880   21.7570 C   0  0  0  0  0  0  0  0  0  0  0  0
   10.0280   -0.5200   22.2890 C   0  0  0  0  0  0  0  0  0  0  0  0
    8.6630   -0.6830   21.9800 N   0  0  0  0  0  0  0  0  0  0  0  0
    8.1070   -0.1280   20.8600 C   0  0  0  0  0  0  0  0  0  0  0  0
    8.7550    0.4410   20.0050 O   0  0  0  0  0  0  0  0  0  0  0  0
    6.7490   -0.2300   20.7720 N   0  0  0  0  0  0  0  0  0  0  0  0
    5.9970    0.3540   19.7230 C   0  0  0  0  0  0  0  0  0  0  0  0
    5.0620    1.3580   20.0040 C   0  0  0  0  0  0  0  0  0  0  0  0
    4.4710    2.0200   18.9180 C   0  0  0  0  0  0  0  0  0  0  0  0
    4.8400    1.6750   17.6080 C   0  0  0  0  0  0  0  0  0  0  0  0
    5.7150    0.6830   17.3280 N   0  0  0  0  0  0  0  0  0  0  0  0
    6.2910    0.0560   18.3740 C   0  0  0  0  0  0  0  0  0  0  0  0
   10.4290    0.6370   22.9590 C   0  0  0  0  0  0  0  0  0  0  0  0
   10.1190    3.6440   23.8000 N   0  0  0  0  0  0  0  0  0  0  0  0
    9.1150    4.4940   23.1380 C   0  0  0  0  0  0  0  0  0  0  0  0
    8.2210    3.6820   22.1780 C   0  0  0  0  0  0  0  0  0  0  0  0
    7.3260    2.7350   22.8520 C   0  0  0  0  0  0  0  0  0  0  0  0
    6.6270    1.9630   23.3510 N   0  0  0  0  0  0  0  0  0  0  0  0
  2  1  1  1
  2 20  1  0
  2  3  1  0
  3  4  1  0
  4 19  2  0
  4  5  1  0
  5  6  2  0
  6  7  1  0
  7  8  2  0
  8  9  1  0
  8 19  1  0
  9 10  1  0
 10 11  2  0
 10 12  1  0
 12 13  1  0
 13 14  2  0
 13 18  1  0
 14 15  1  0
 15 16  2  0
 16 17  1  0
 17 18  2  0
 20 21  1  0
 21 22  1  0
 22 23  1  0
 23 24  3  0
M  END
>  <original SMILES>  (615) 
CC(Cc1cccc(NC(=O)Nc2cccnc2)c1)NCCC#N

>  <AutoDock Predicted Affinity>  (615) 
-5.845058

>  <ref_pdb>  (615) 
x0434_0

>  <ref_mols>  (615) 
x0434_0

>  <creator>  (615) 
Will Poole

>  <energy minimised>  (615) 
True

$$$$
WPC2300_minimised.pdb
     RDKit          3D

 23 24  0  0  1  0  0  0  0  0999 V2000
   12.7100    4.9540   23.0950 C   0  0  0  0  0  0  0  0  0  0  0  0
   11.2790    4.9210   23.6760 C   0  0  2  0  0  0  0  0  0  0  0  0
   11.0220    3.5820   24.4170 C   0  0  0  0  0  0  0  0  0  0  0  0
   11.0330    2.3040   23.5840 C   0  0  0  0  0  0  0  0  0  0  0  0
   12.2380    1.6440   23.2700 C   0  0  0  0  0  0  0  0  0  0  0  0
   12.2230    0.4350   22.5530 C   0  0  0  0  0  0  0  0  0  0  0  0
   11.0010   -0.1310   22.1540 C   0  0  0  0  0  0  0  0  0  0  0  0
    9.8000    0.5120   22.4850 C   0  0  0  0  0  0  0  0  0  0  0  0
    8.5550   -0.0020   22.0750 N   0  0  0  0  0  0  0  0  0  0  0  0
    8.0900    0.0800   20.7960 C   0  0  0  0  0  0  0  0  0  0  0  0
    8.7880    0.2980   19.8270 O   0  0  0  0  0  0  0  0  0  0  0  0
    6.7290   -0.0110   20.7100 N   0  0  0  0  0  0  0  0  0  0  0  0
    5.9860    0.4960   19.6190 C   0  0  0  0  0  0  0  0  0  0  0  0
    5.0270    1.4860   19.8630 C   0  0  0  0  0  0  0  0  0  0  0  0
    4.4350    2.1070   18.7570 C   0  0  0  0  0  0  0  0  0  0  0  0
    4.8370    1.7450   17.4640 C   0  0  0  0  0  0  0  0  0  0  0  0
    5.7310    0.7610   17.2180 N   0  0  0  0  0  0  0  0  0  0  0  0
    6.2970    0.1600   18.2850 C   0  0  0  0  0  0  0  0  0  0  0  0
    9.8180    1.7190   23.1950 C   0  0  0  0  0  0  0  0  0  0  0  0
   10.3190    5.2030   22.5960 N   0  0  0  0  0  0  0  0  0  0  0  0
    8.8710    5.1750   22.8980 C   0  0  0  0  0  0  0  0  0  0  0  0
    8.0560    4.8750   21.6210 C   0  0  0  0  0  0  0  0  0  0  0  0
    6.6830    4.5560   21.8820 O   0  0  0  0  0  0  0  0  0  0  0  0
  2  1  1  6
  2 20  1  0
  2  3  1  0
  3  4  1  0
  4 19  2  0
  4  5  1  0
  5  6  2  0
  6  7  1  0
  7  8  2  0
  8  9  1  0
  8 19  1  0
  9 10  1  0
 10 11  2  0
 10 12  1  0
 12 13  1  0
 13 14  2  0
 13 18  1  0
 14 15  1  0
 15 16  2  0
 16 17  1  0
 17 18  2  0
 20 21  1  0
 21 22  1  0
 22 23  1  0
M  END
>  <original SMILES>  (616) 
CC(Cc1cccc(NC(=O)Nc2cccnc2)c1)NCCO

>  <AutoDock Predicted Affinity>  (616) 
-5.4938

>  <ref_pdb>  (616) 
x0434_0

>  <ref_mols>  (616) 
x0434_0

>  <creator>  (616) 
Will Poole

>  <energy minimised>  (616) 
True

$$$$
WPC2444_minimised.pdb
     RDKit          3D

 21 22  0  0  1  0  0  0  0  0999 V2000
   12.8500    5.0920   22.9690 C   0  0  0  0  0  0  0  0  0  0  0  0
   11.4860    5.2660   23.6720 C   0  0  2  0  0  0  0  0  0  0  0  0
   11.0770    3.9890   24.4500 C   0  0  0  0  0  0  0  0  0  0  0  0
   10.9910    2.6860   23.6600 C   0  0  0  0  0  0  0  0  0  0  0  0
   12.1440    1.9350   23.3530 C   0  0  0  0  0  0  0  0  0  0  0  0
   12.0380    0.7080   22.6770 C   0  0  0  0  0  0  0  0  0  0  0  0
   10.7740    0.2120   22.3200 C   0  0  0  0  0  0  0  0  0  0  0  0
    9.6220    0.9440   22.6460 C   0  0  0  0  0  0  0  0  0  0  0  0
    8.3410    0.4830   22.2840 N   0  0  0  0  0  0  0  0  0  0  0  0
    7.9130    0.3510   20.9960 C   0  0  0  0  0  0  0  0  0  0  0  0
    8.6510    0.3750   20.0320 O   0  0  0  0  0  0  0  0  0  0  0  0
    6.5530    0.2700   20.8830 N   0  0  0  0  0  0  0  0  0  0  0  0
    5.8420    0.6560   19.7220 C   0  0  0  0  0  0  0  0  0  0  0  0
    4.8450    1.6290   19.8560 C   0  0  0  0  0  0  0  0  0  0  0  0
    4.2830    2.1500   18.6860 C   0  0  0  0  0  0  0  0  0  0  0  0
    4.7410    1.7020   17.4400 C   0  0  0  0  0  0  0  0  0  0  0  0
    5.6580    0.7170   17.2990 N   0  0  0  0  0  0  0  0  0  0  0  0
    6.2070    0.2210   18.4280 C   0  0  0  0  0  0  0  0  0  0  0  0
    9.7320    2.1770   23.3060 C   0  0  0  0  0  0  0  0  0  0  0  0
   10.4690    5.6860   22.6930 N   0  0  0  0  0  0  0  0  0  0  0  0
    9.2220    5.9600   23.3280 O   0  0  0  0  0  0  0  0  0  0  0  0
  2  1  1  6
  2 20  1  0
  2  3  1  0
  3  4  1  0
  4 19  2  0
  4  5  1  0
  5  6  2  0
  6  7  1  0
  7  8  2  0
  8  9  1  0
  8 19  1  0
  9 10  1  0
 10 11  2  0
 10 12  1  0
 12 13  1  0
 13 14  2  0
 13 18  1  0
 14 15  1  0
 15 16  2  0
 16 17  1  0
 17 18  2  0
 20 21  1  0
M  END
>  <original SMILES>  (617) 
CC(Cc1cccc(NC(=O)Nc2cccnc2)c1)NO

>  <AutoDock Predicted Affinity>  (617) 
-5.86973

>  <ref_pdb>  (617) 
x0434_0

>  <ref_mols>  (617) 
x0434_0

>  <creator>  (617) 
Will Poole

>  <energy minimised>  (617) 
True

$$$$
WPC1955_minimised.pdb
     RDKit          3D

 22 23  0  0  1  0  0  0  0  0999 V2000
   12.6380    5.2010   22.5250 C   0  0  0  0  0  0  0  0  0  0  0  0
   12.6080    3.6770   22.6840 C   0  0  1  0  0  0  0  0  0  0  0  0
   14.0020    3.2480   22.8040 N   0  0  0  0  0  0  0  0  0  0  0  0
   11.7230    3.2390   23.8850 C   0  0  1  0  0  0  0  0  0  0  0  0
   10.2330    3.5930   23.6570 C   0  0  0  0  0  0  0  0  0  0  0  0
   11.8900    1.7500   24.3090 C   0  0  0  0  0  0  0  0  0  0  0  0
   11.4800    0.6980   23.2990 C   0  0  0  0  0  0  0  0  0  0  0  0
   12.4530   -0.0570   22.6190 C   0  0  0  0  0  0  0  0  0  0  0  0
   12.0650   -1.0960   21.7590 C   0  0  0  0  0  0  0  0  0  0  0  0
   10.7010   -1.3610   21.5610 C   0  0  0  0  0  0  0  0  0  0  0  0
    9.7320   -0.5870   22.2090 C   0  0  0  0  0  0  0  0  0  0  0  0
    8.3690   -0.7140   21.8820 N   0  0  0  0  0  0  0  0  0  0  0  0
    7.8720   -0.3920   20.6500 C   0  0  0  0  0  0  0  0  0  0  0  0
    8.5670   -0.1980   19.6720 O   0  0  0  0  0  0  0  0  0  0  0  0
    6.5130   -0.2450   20.6250 N   0  0  0  0  0  0  0  0  0  0  0  0
    5.8020    0.3660   19.5630 C   0  0  0  0  0  0  0  0  0  0  0  0
    4.8800    1.3780   19.8560 C   0  0  0  0  0  0  0  0  0  0  0  0
    4.3050    2.0660   18.7790 C   0  0  0  0  0  0  0  0  0  0  0  0
    4.6810    1.7410   17.4680 C   0  0  0  0  0  0  0  0  0  0  0  0
    5.5330    0.7330   17.1760 N   0  0  0  0  0  0  0  0  0  0  0  0
    6.0870    0.0720   18.2120 C   0  0  0  0  0  0  0  0  0  0  0  0
   10.1200    0.4130   23.1030 C   0  0  0  0  0  0  0  0  0  0  0  0
  2  1  1  1
  2  3  1  0
  2  4  1  0
  4  5  1  6
  4  6  1  0
  6  7  1  0
  7 22  2  0
  7  8  1  0
  8  9  2  0
  9 10  1  0
 10 11  2  0
 11 12  1  0
 11 22  1  0
 12 13  1  0
 13 14  2  0
 13 15  1  0
 15 16  1  0
 16 17  2  0
 16 21  1  0
 17 18  1  0
 18 19  2  0
 19 20  1  0
 20 21  2  0
M  END
>  <original SMILES>  (618) 
CC(N)C(C)Cc1cccc(NC(=O)Nc2cccnc2)c1

>  <AutoDock Predicted Affinity>  (618) 
-5.750385

>  <ref_pdb>  (618) 
x0434_0

>  <ref_mols>  (618) 
x0434_0

>  <creator>  (618) 
Will Poole

>  <energy minimised>  (618) 
True

$$$$
WPC1527_minimised.pdb
     RDKit          3D

 21 22  0  0  1  0  0  0  0  0999 V2000
   12.0300    6.0030   24.8760 C   0  0  0  0  0  0  0  0  0  0  0  0
   11.8500    5.4410   23.4560 C   0  0  2  0  0  0  0  0  0  0  0  0
   10.5040    5.7660   22.9810 N   0  0  0  0  0  0  0  0  0  0  0  0
   12.0830    3.9280   23.3450 C   0  0  0  0  0  0  0  0  0  0  0  0
   11.0270    2.9500   24.4900 S   0  0  0  0  0  0  0  0  0  0  0  0
   10.9430    1.4110   23.6130 C   0  0  0  0  0  0  0  0  0  0  0  0
   12.1020    0.7520   23.1700 C   0  0  0  0  0  0  0  0  0  0  0  0
   11.9920   -0.3940   22.3640 C   0  0  0  0  0  0  0  0  0  0  0  0
   10.7210   -0.8730   21.9990 C   0  0  0  0  0  0  0  0  0  0  0  0
    9.5680   -0.2120   22.4530 C   0  0  0  0  0  0  0  0  0  0  0  0
    8.2870   -0.5730   21.9970 N   0  0  0  0  0  0  0  0  0  0  0  0
    7.8470   -0.2830   20.7380 C   0  0  0  0  0  0  0  0  0  0  0  0
    8.5810   -0.0070   19.8100 O   0  0  0  0  0  0  0  0  0  0  0  0
    6.4850   -0.2500   20.6340 N   0  0  0  0  0  0  0  0  0  0  0  0
    5.7940    0.3620   19.5610 C   0  0  0  0  0  0  0  0  0  0  0  0
    4.8530    1.3610   19.8390 C   0  0  0  0  0  0  0  0  0  0  0  0
    4.3020    2.0570   18.7560 C   0  0  0  0  0  0  0  0  0  0  0  0
    4.7180    1.7500   17.4520 C   0  0  0  0  0  0  0  0  0  0  0  0
    5.5960    0.7600   17.1730 N   0  0  0  0  0  0  0  0  0  0  0  0
    6.1280    0.0930   18.2170 C   0  0  0  0  0  0  0  0  0  0  0  0
    9.6810    0.9200   23.2660 C   0  0  0  0  0  0  0  0  0  0  0  0
  2  1  1  1
  2  3  1  0
  2  4  1  0
  4  5  1  0
  5  6  1  0
  6 21  2  0
  6  7  1  0
  7  8  2  0
  8  9  1  0
  9 10  2  0
 10 11  1  0
 10 21  1  0
 11 12  1  0
 12 13  2  0
 12 14  1  0
 14 15  1  0
 15 16  2  0
 15 20  1  0
 16 17  1  0
 17 18  2  0
 18 19  1  0
 19 20  2  0
M  END
>  <original SMILES>  (619) 
CC(N)CSc1cccc(NC(=O)Nc2cccnc2)c1

>  <AutoDock Predicted Affinity>  (619) 
-5.73525

>  <ref_pdb>  (619) 
x0434_0

>  <ref_mols>  (619) 
x0434_0

>  <creator>  (619) 
Will Poole

>  <energy minimised>  (619) 
True

$$$$
WPC1577_minimised.pdb
     RDKit          3D

 20 21  0  0  1  0  0  0  0  0999 V2000
   11.6310    4.6650   22.9900 C   0  0  0  0  0  0  0  0  0  0  0  0
   10.4880    4.2840   23.9450 C   0  0  1  0  0  0  0  0  0  0  0  0
    9.2180    4.2790   23.2200 N   0  0  0  0  0  0  0  0  0  0  0  0
   10.7520    2.9220   24.6270 C   0  0  0  0  0  0  0  0  0  0  0  0
   10.7810    1.7180   23.6960 C   0  0  0  0  0  0  0  0  0  0  0  0
   11.9940    1.1850   23.2210 C   0  0  0  0  0  0  0  0  0  0  0  0
   11.9880    0.0810   22.3500 C   0  0  0  0  0  0  0  0  0  0  0  0
   10.7680   -0.4910   21.9500 C   0  0  0  0  0  0  0  0  0  0  0  0
    9.5610    0.0360   22.4330 C   0  0  0  0  0  0  0  0  0  0  0  0
    8.3150   -0.4300   21.9750 N   0  0  0  0  0  0  0  0  0  0  0  0
    7.8590   -0.2050   20.7090 C   0  0  0  0  0  0  0  0  0  0  0  0
    8.5730    0.0830   19.7690 O   0  0  0  0  0  0  0  0  0  0  0  0
    6.4960   -0.2430   20.6120 N   0  0  0  0  0  0  0  0  0  0  0  0
    5.7810    0.3500   19.5460 C   0  0  0  0  0  0  0  0  0  0  0  0
    4.8430    1.3500   19.8310 C   0  0  0  0  0  0  0  0  0  0  0  0
    4.2780    2.0400   18.7510 C   0  0  0  0  0  0  0  0  0  0  0  0
    4.6750    1.7240   17.4430 C   0  0  0  0  0  0  0  0  0  0  0  0
    5.5510    0.7330   17.1590 N   0  0  0  0  0  0  0  0  0  0  0  0
    6.0980    0.0740   18.1990 C   0  0  0  0  0  0  0  0  0  0  0  0
    9.5700    1.1240   23.3110 C   0  0  0  0  0  0  0  0  0  0  0  0
  2  1  1  6
  2  3  1  0
  2  4  1  0
  4  5  1  0
  5 20  2  0
  5  6  1  0
  6  7  2  0
  7  8  1  0
  8  9  2  0
  9 10  1  0
  9 20  1  0
 10 11  1  0
 11 12  2  0
 11 13  1  0
 13 14  1  0
 14 15  2  0
 14 19  1  0
 15 16  1  0
 16 17  2  0
 17 18  1  0
 18 19  2  0
M  END
>  <original SMILES>  (620) 
CC(N)Cc1cccc(NC(=O)Nc2cccnc2)c1

>  <AutoDock Predicted Affinity>  (620) 
-5.750075

>  <ref_pdb>  (620) 
x0434_0

>  <ref_mols>  (620) 
x0434_0

>  <creator>  (620) 
Will Poole

>  <energy minimised>  (620) 
True

$$$$
WPC1266_minimised.pdb
     RDKit          3D

 24 25  0  0  1  0  0  0  0  0999 V2000
   12.3640    6.4640   24.6030 C   0  0  0  0  0  0  0  0  0  0  0  0
   11.5110    5.3760   23.9740 C   0  0  1  0  0  0  0  0  0  0  0  0
   11.8240    4.1280   24.1170 N   0  0  0  0  0  0  0  0  0  0  0  0
   11.8590    3.2570   23.0770 N   0  0  0  0  0  0  0  0  0  0  0  0
   12.5820    2.0210   23.4180 C   0  0  0  0  0  0  0  0  0  0  0  0
   11.9840    0.7930   22.7690 C   0  0  0  0  0  0  0  0  0  0  0  0
   12.8260   -0.2090   22.2600 C   0  0  0  0  0  0  0  0  0  0  0  0
   12.2750   -1.3770   21.7140 C   0  0  0  0  0  0  0  0  0  0  0  0
   10.8820   -1.5350   21.6580 C   0  0  0  0  0  0  0  0  0  0  0  0
   10.0400   -0.5240   22.1370 C   0  0  0  0  0  0  0  0  0  0  0  0
    8.6500   -0.5940   21.9260 N   0  0  0  0  0  0  0  0  0  0  0  0
    8.0760   -0.2830   20.7260 C   0  0  0  0  0  0  0  0  0  0  0  0
    8.7200   -0.0620   19.7210 O   0  0  0  0  0  0  0  0  0  0  0  0
    6.7130   -0.1780   20.7490 N   0  0  0  0  0  0  0  0  0  0  0  0
    5.9550    0.3910   19.6950 C   0  0  0  0  0  0  0  0  0  0  0  0
    5.0400    1.4100   19.9840 C   0  0  0  0  0  0  0  0  0  0  0  0
    4.4380    2.0700   18.9040 C   0  0  0  0  0  0  0  0  0  0  0  0
    4.7870    1.7180   17.5920 C   0  0  0  0  0  0  0  0  0  0  0  0
    5.6270    0.6990   17.3050 N   0  0  0  0  0  0  0  0  0  0  0  0
    6.2020    0.0610   18.3440 C   0  0  0  0  0  0  0  0  0  0  0  0
   10.5890    0.6300   22.7080 C   0  0  0  0  0  0  0  0  0  0  0  0
   10.1070    5.6900   23.5250 C   0  0  0  0  0  0  0  0  0  0  0  0
    9.6650    6.8180   23.4350 O   0  0  0  0  0  0  0  0  0  0  0  0
    9.3210    4.6140   23.3370 O   0  0  0  0  0  0  0  0  0  0  0  0
  2  1  1  1
  2 22  1  0
  2  3  1  0
  3  4  1  0
  4  5  1  0
  5  6  1  0
  6 21  2  0
  6  7  1  0
  7  8  2  0
  8  9  1  0
  9 10  2  0
 10 11  1  0
 10 21  1  0
 11 12  1  0
 12 13  2  0
 12 14  1  0
 14 15  1  0
 15 16  2  0
 15 20  1  0
 16 17  1  0
 17 18  2  0
 18 19  1  0
 19 20  2  0
 22 23  2  0
 22 24  1  0
M  END
>  <original SMILES>  (621) 
CC(NNCc1cccc(NC(=O)Nc2cccnc2)c1)C(=O)O

>  <AutoDock Predicted Affinity>  (621) 
-5.779636

>  <ref_pdb>  (621) 
x0434_0

>  <ref_mols>  (621) 
x0434_0

>  <creator>  (621) 
Will Poole

>  <energy minimised>  (621) 
True

$$$$
WPC1884_minimised.pdb
     RDKit          3D

 21 22  0  0  1  0  0  0  0  0999 V2000
   12.7740    4.8740   23.6250 C   0  0  0  0  0  0  0  0  0  0  0  0
   11.2400    4.9030   23.4670 C   0  0  2  0  0  0  0  0  0  0  0  0
   10.8150    6.2340   23.7470 O   0  0  0  0  0  0  0  0  0  0  0  0
   10.4570    3.9740   24.4230 C   0  0  0  0  0  0  0  0  0  0  0  0
   11.0330    2.5620   24.6890 C   0  0  0  0  0  0  0  0  0  0  0  0
   10.8930    1.5350   23.5850 C   0  0  0  0  0  0  0  0  0  0  0  0
   12.0280    0.9130   23.0340 C   0  0  0  0  0  0  0  0  0  0  0  0
   11.8800   -0.1370   22.1120 C   0  0  0  0  0  0  0  0  0  0  0  0
   10.5940   -0.5610   21.7400 C   0  0  0  0  0  0  0  0  0  0  0  0
    9.4640    0.0690   22.2810 C   0  0  0  0  0  0  0  0  0  0  0  0
    8.1640   -0.2700   21.8660 N   0  0  0  0  0  0  0  0  0  0  0  0
    7.7200   -0.1200   20.5850 C   0  0  0  0  0  0  0  0  0  0  0  0
    8.4480    0.0080   19.6210 O   0  0  0  0  0  0  0  0  0  0  0  0
    6.3580   -0.0390   20.5050 N   0  0  0  0  0  0  0  0  0  0  0  0
    5.6670    0.5410   19.4170 C   0  0  0  0  0  0  0  0  0  0  0  0
    4.7200    1.5400   19.6760 C   0  0  0  0  0  0  0  0  0  0  0  0
    4.1700    2.2150   18.5800 C   0  0  0  0  0  0  0  0  0  0  0  0
    4.5970    1.8930   17.2840 C   0  0  0  0  0  0  0  0  0  0  0  0
    5.4770    0.9010   17.0240 N   0  0  0  0  0  0  0  0  0  0  0  0
    6.0030    0.2480   18.0790 C   0  0  0  0  0  0  0  0  0  0  0  0
    9.6130    1.1050   23.2080 C   0  0  0  0  0  0  0  0  0  0  0  0
  2  1  1  1
  2  3  1  0
  2  4  1  0
  4  5  1  0
  5  6  1  0
  6 21  2  0
  6  7  1  0
  7  8  2  0
  8  9  1  0
  9 10  2  0
 10 11  1  0
 10 21  1  0
 11 12  1  0
 12 13  2  0
 12 14  1  0
 14 15  1  0
 15 16  2  0
 15 20  1  0
 16 17  1  0
 17 18  2  0
 18 19  1  0
 19 20  2  0
M  END
>  <original SMILES>  (622) 
CC(O)CCc1cccc(NC(=O)Nc2cccnc2)c1

>  <AutoDock Predicted Affinity>  (622) 
-5.62765

>  <ref_pdb>  (622) 
x0434_0

>  <ref_mols>  (622) 
x0434_0

>  <creator>  (622) 
Will Poole

>  <energy minimised>  (622) 
True

$$$$
WPC2013_minimised.pdb
     RDKit          3D

 22 23  0  0  1  0  0  0  0  0999 V2000
   12.2000    5.9440   24.4710 C   0  0  0  0  0  0  0  0  0  0  0  0
   11.8460    5.1960   23.1700 C   0  0  2  0  0  0  0  0  0  0  0  0
   10.5080    5.5380   22.7970 O   0  0  0  0  0  0  0  0  0  0  0  0
   12.0130    3.6640   23.3190 C   0  0  0  0  0  0  0  0  0  0  0  0
   11.2180    3.1200   24.4340 N   0  0  0  0  0  0  0  0  0  0  0  0
   11.4550    1.7010   24.7310 C   0  0  0  0  0  0  0  0  0  0  0  0
   11.0930    0.7610   23.6050 C   0  0  0  0  0  0  0  0  0  0  0  0
   12.1010    0.0870   22.8900 C   0  0  0  0  0  0  0  0  0  0  0  0
   11.7580   -0.8620   21.9170 C   0  0  0  0  0  0  0  0  0  0  0  0
   10.4060   -1.1050   21.6340 C   0  0  0  0  0  0  0  0  0  0  0  0
    9.4050   -0.3860   22.3000 C   0  0  0  0  0  0  0  0  0  0  0  0
    8.0610   -0.4910   21.8990 N   0  0  0  0  0  0  0  0  0  0  0  0
    7.6360   -0.1870   20.6370 C   0  0  0  0  0  0  0  0  0  0  0  0
    8.3820   -0.0100   19.6930 O   0  0  0  0  0  0  0  0  0  0  0  0
    6.2810   -0.0410   20.5480 N   0  0  0  0  0  0  0  0  0  0  0  0
    5.6160    0.5600   19.4550 C   0  0  0  0  0  0  0  0  0  0  0  0
    4.6690    1.5610   19.7040 C   0  0  0  0  0  0  0  0  0  0  0  0
    4.1450    2.2470   18.6010 C   0  0  0  0  0  0  0  0  0  0  0  0
    4.5940    1.9330   17.3110 C   0  0  0  0  0  0  0  0  0  0  0  0
    5.4720    0.9350   17.0600 N   0  0  0  0  0  0  0  0  0  0  0  0
    5.9720    0.2720   18.1200 C   0  0  0  0  0  0  0  0  0  0  0  0
    9.7440    0.5280   23.3010 C   0  0  0  0  0  0  0  0  0  0  0  0
  2  1  1  1
  2  3  1  0
  2  4  1  0
  4  5  1  0
  5  6  1  0
  6  7  1  0
  7 22  2  0
  7  8  1  0
  8  9  2  0
  9 10  1  0
 10 11  2  0
 11 12  1  0
 11 22  1  0
 12 13  1  0
 13 14  2  0
 13 15  1  0
 15 16  1  0
 16 17  2  0
 16 21  1  0
 17 18  1  0
 18 19  2  0
 19 20  1  0
 20 21  2  0
M  END
>  <original SMILES>  (623) 
CC(O)CNCc1cccc(NC(=O)Nc2cccnc2)c1

>  <AutoDock Predicted Affinity>  (623) 
-5.81077

>  <ref_pdb>  (623) 
x0434_0

>  <ref_mols>  (623) 
x0434_0

>  <creator>  (623) 
Will Poole

>  <energy minimised>  (623) 
True

$$$$
WPC1147_minimised.pdb
     RDKit          3D

 22 23  0  0  1  0  0  0  0  0999 V2000
   10.0870    5.6580   23.6210 C   0  0  0  0  0  0  0  0  0  0  0  0
   10.8790    4.3800   23.2880 C   0  0  2  0  0  0  0  0  0  0  0  0
   10.8010    3.1900   24.6840 S   0  0  0  0  0  0  0  0  0  0  0  0
   10.9260    1.6640   23.7900 C   0  0  0  0  0  0  0  0  0  0  0  0
   12.1620    1.1600   23.3530 C   0  0  0  0  0  0  0  0  0  0  0  0
   12.1990    0.0230   22.5260 C   0  0  0  0  0  0  0  0  0  0  0  0
   10.9990   -0.5960   22.1270 C   0  0  0  0  0  0  0  0  0  0  0  0
    9.7690   -0.0840   22.5710 C   0  0  0  0  0  0  0  0  0  0  0  0
    8.5440   -0.5670   22.0740 N   0  0  0  0  0  0  0  0  0  0  0  0
    8.0470   -0.1790   20.8620 C   0  0  0  0  0  0  0  0  0  0  0  0
    8.7240    0.3330   19.9930 O   0  0  0  0  0  0  0  0  0  0  0  0
    6.6960   -0.3380   20.7270 N   0  0  0  0  0  0  0  0  0  0  0  0
    5.9590    0.2560   19.6740 C   0  0  0  0  0  0  0  0  0  0  0  0
    5.0040    1.2380   19.9700 C   0  0  0  0  0  0  0  0  0  0  0  0
    4.4360    1.9380   18.8970 C   0  0  0  0  0  0  0  0  0  0  0  0
    4.8380    1.6440   17.5850 C   0  0  0  0  0  0  0  0  0  0  0  0
    5.7280    0.6690   17.2910 N   0  0  0  0  0  0  0  0  0  0  0  0
    6.2870    0.0090   18.3240 C   0  0  0  0  0  0  0  0  0  0  0  0
    9.7370    1.0350   23.4080 C   0  0  0  0  0  0  0  0  0  0  0  0
   12.3370    4.6770   22.9300 C   0  0  0  0  0  0  0  0  0  0  0  0
   13.2040    4.8790   23.7590 O   0  0  0  0  0  0  0  0  0  0  0  0
   12.5180    5.0130   21.6440 O   0  0  0  0  0  0  0  0  0  0  0  0
  2  1  1  1
  2 20  1  0
  2  3  1  0
  3  4  1  0
  4 19  2  0
  4  5  1  0
  5  6  2  0
  6  7  1  0
  7  8  2  0
  8  9  1  0
  8 19  1  0
  9 10  1  0
 10 11  2  0
 10 12  1  0
 12 13  1  0
 13 14  2  0
 13 18  1  0
 14 15  1  0
 15 16  2  0
 16 17  1  0
 17 18  2  0
 20 21  2  0
 20 22  1  0
M  END
>  <original SMILES>  (624) 
CC(Sc1cccc(NC(=O)Nc2cccnc2)c1)C(=O)O

>  <AutoDock Predicted Affinity>  (624) 
-5.712775

>  <ref_pdb>  (624) 
x0434_0

>  <ref_mols>  (624) 
x0434_0

>  <creator>  (624) 
Will Poole

>  <energy minimised>  (624) 
True

$$$$
WPC2644_minimised.pdb
     RDKit          3D

 22 23  0  0  1  0  0  0  0  0999 V2000
   11.8280    6.0960   24.8510 C   0  0  0  0  0  0  0  0  0  0  0  0
   12.0250    4.7340   24.1650 C   0  0  1  0  0  0  0  0  0  0  0  0
   10.4040    4.0940   23.5740 S   0  0  0  0  0  0  0  0  0  0  0  0
   10.6340    2.3600   23.1920 C   0  0  0  0  0  0  0  0  0  0  0  0
   11.8790    1.6980   23.2010 C   0  0  0  0  0  0  0  0  0  0  0  0
   11.9630    0.3450   22.8280 C   0  0  0  0  0  0  0  0  0  0  0  0
   10.8030   -0.3630   22.4680 C   0  0  0  0  0  0  0  0  0  0  0  0
    9.5640    0.2930   22.4800 C   0  0  0  0  0  0  0  0  0  0  0  0
    8.3880   -0.3410   22.0380 N   0  0  0  0  0  0  0  0  0  0  0  0
    7.9090   -0.1550   20.7730 C   0  0  0  0  0  0  0  0  0  0  0  0
    8.5990    0.2090   19.8440 O   0  0  0  0  0  0  0  0  0  0  0  0
    6.5530   -0.2990   20.6620 N   0  0  0  0  0  0  0  0  0  0  0  0
    5.8210    0.2810   19.5990 C   0  0  0  0  0  0  0  0  0  0  0  0
    4.8820    1.2800   19.8860 C   0  0  0  0  0  0  0  0  0  0  0  0
    4.3290    1.9840   18.8080 C   0  0  0  0  0  0  0  0  0  0  0  0
    4.7380    1.6810   17.5010 C   0  0  0  0  0  0  0  0  0  0  0  0
    5.6100    0.6890   17.2140 N   0  0  0  0  0  0  0  0  0  0  0  0
    6.1500    0.0190   18.2520 C   0  0  0  0  0  0  0  0  0  0  0  0
    9.4860    1.6470   22.8320 C   0  0  0  0  0  0  0  0  0  0  0  0
   13.1160    4.7640   23.0910 C   0  0  0  0  0  0  0  0  0  0  0  0
   12.7370    4.9090   21.7950 N   0  0  0  0  0  0  0  0  0  0  0  0
   14.2900    4.6250   23.3590 O   0  0  0  0  0  0  0  0  0  0  0  0
  2  1  1  6
  2 20  1  0
  2  3  1  0
  3  4  1  0
  4 19  2  0
  4  5  1  0
  5  6  2  0
  6  7  1  0
  7  8  2  0
  8  9  1  0
  8 19  1  0
  9 10  1  0
 10 11  2  0
 10 12  1  0
 12 13  1  0
 13 14  2  0
 13 18  1  0
 14 15  1  0
 15 16  2  0
 16 17  1  0
 17 18  2  0
 20 21  1  0
 20 22  2  0
M  END
>  <original SMILES>  (625) 
CC(Sc1cccc(NC(=O)Nc2cccnc2)c1)C(N)=O

>  <AutoDock Predicted Affinity>  (625) 
-5.8948

>  <ref_pdb>  (625) 
x0434_0

>  <ref_mols>  (625) 
x0434_0

>  <creator>  (625) 
Will Poole

>  <energy minimised>  (625) 
True

$$$$
WPC1478_minimised.pdb
     RDKit          3D

 24 26  0  0  1  0  0  0  0  0999 V2000
   12.4790    6.5390   25.0600 C   0  0  0  0  0  0  0  0  0  0  0  0
   12.1400    5.5650   23.9140 C   0  0  0  0  0  0  0  0  0  0  0  0
   13.2790    5.4310   22.8720 C   0  0  0  0  0  0  0  0  0  0  0  0
   10.7370    5.8170   23.2990 C   0  0  0  0  0  0  0  0  0  0  0  0
    9.9300    4.5600   23.6060 C   0  0  0  0  0  0  0  0  0  0  0  0
   11.0140    3.5190   23.8600 C   0  0  2  0  0  0  0  0  0  0  0  0
   10.4830    2.1780   24.9760 S   0  0  0  0  0  0  0  0  0  0  0  0
   10.6240    0.8230   23.8570 C   0  0  0  0  0  0  0  0  0  0  0  0
   11.8690    0.4340   23.3380 C   0  0  0  0  0  0  0  0  0  0  0  0
   11.9280   -0.5540   22.3410 C   0  0  0  0  0  0  0  0  0  0  0  0
   10.7390   -1.1290   21.8600 C   0  0  0  0  0  0  0  0  0  0  0  0
    9.5000   -0.7180   22.3760 C   0  0  0  0  0  0  0  0  0  0  0  0
    8.2870   -1.1120   21.7900 N   0  0  0  0  0  0  0  0  0  0  0  0
    7.8470   -0.5750   20.6140 C   0  0  0  0  0  0  0  0  0  0  0  0
    8.5660   -0.0410   19.7940 O   0  0  0  0  0  0  0  0  0  0  0  0
    6.4890   -0.6150   20.4770 N   0  0  0  0  0  0  0  0  0  0  0  0
    5.7940    0.1120   19.4830 C   0  0  0  0  0  0  0  0  0  0  0  0
    4.8840    1.1090   19.8570 C   0  0  0  0  0  0  0  0  0  0  0  0
    4.3440    1.9110   18.8420 C   0  0  0  0  0  0  0  0  0  0  0  0
    4.7360    1.7010   17.5100 C   0  0  0  0  0  0  0  0  0  0  0  0
    5.5940    0.7230   17.1430 N   0  0  0  0  0  0  0  0  0  0  0  0
    6.1190   -0.0410   18.1210 C   0  0  0  0  0  0  0  0  0  0  0  0
    9.4460    0.2440   23.3860 C   0  0  0  0  0  0  0  0  0  0  0  0
   12.0200    4.2810   24.5230 O   0  0  0  0  0  0  0  0  0  0  0  0
  1  2  1  0
  2  3  1  0
  2 24  1  0
  2  4  1  0
  4  5  1  0
  5  6  1  0
  6  7  1  1
  6 24  1  0
  7  8  1  0
  8 23  1  0
  8  9  2  0
  9 10  1  0
 10 11  2  0
 11 12  1  0
 12 13  1  0
 12 23  2  0
 13 14  1  0
 14 15  2  0
 14 16  1  0
 16 17  1  0
 17 18  2  0
 17 22  1  0
 18 19  1  0
 19 20  2  0
 20 21  1  0
 21 22  2  0
M  END
>  <original SMILES>  (626) 
CC1(C)CCC(Sc2cccc(NC(=O)Nc3cccnc3)c2)O1

>  <AutoDock Predicted Affinity>  (626) 
-6.254126

>  <ref_pdb>  (626) 
x0434_0

>  <ref_mols>  (626) 
x0434_0

>  <creator>  (626) 
Will Poole

>  <energy minimised>  (626) 
True

$$$$
WPC2639_minimised.pdb
     RDKit          3D

 24 26  0  0  1  0  0  0  0  0999 V2000
   12.0200    6.0500   24.9700 C   0  0  0  0  0  0  0  0  0  0  0  0
   11.3670    5.0800   23.9640 C   0  0  0  0  0  0  0  0  0  0  0  0
   10.0510    5.6230   23.3710 C   0  0  0  0  0  0  0  0  0  0  0  0
   12.3790    4.6160   22.8860 C   0  0  0  0  0  0  0  0  0  0  0  0
   12.6660    3.2720   23.2820 O   0  0  0  0  0  0  0  0  0  0  0  0
   11.7120    2.8890   24.1600 C   0  0  1  0  0  0  0  0  0  0  0  0
   11.7390    1.4510   24.5960 C   0  0  0  0  0  0  0  0  0  0  0  0
   11.2760    0.5040   23.5150 C   0  0  0  0  0  0  0  0  0  0  0  0
   12.2120   -0.1950   22.7320 C   0  0  0  0  0  0  0  0  0  0  0  0
   11.7710   -1.1270   21.7820 C   0  0  0  0  0  0  0  0  0  0  0  0
   10.3950   -1.3150   21.5830 C   0  0  0  0  0  0  0  0  0  0  0  0
    9.4650   -0.5500   22.2990 C   0  0  0  0  0  0  0  0  0  0  0  0
    8.1040   -0.5710   21.9400 N   0  0  0  0  0  0  0  0  0  0  0  0
    7.6600   -0.2400   20.6900 C   0  0  0  0  0  0  0  0  0  0  0  0
    8.3930   -0.0790   19.7320 O   0  0  0  0  0  0  0  0  0  0  0  0
    6.3080   -0.0590   20.6190 N   0  0  0  0  0  0  0  0  0  0  0  0
    5.6400    0.5390   19.5240 C   0  0  0  0  0  0  0  0  0  0  0  0
    4.7080    1.5540   19.7700 C   0  0  0  0  0  0  0  0  0  0  0  0
    4.1790    2.2310   18.6640 C   0  0  0  0  0  0  0  0  0  0  0  0
    4.6070    1.8920   17.3720 C   0  0  0  0  0  0  0  0  0  0  0  0
    5.4690    0.8800   17.1240 N   0  0  0  0  0  0  0  0  0  0  0  0
    5.9770    0.2290   18.1880 C   0  0  0  0  0  0  0  0  0  0  0  0
    9.9030    0.3380   23.2860 C   0  0  0  0  0  0  0  0  0  0  0  0
   11.0270    3.8420   24.6690 N   0  0  0  0  0  0  0  0  0  0  0  0
  1  2  1  0
  2  3  1  0
  2 24  1  0
  2  4  1  0
  4  5  1  0
  5  6  1  0
  6  7  1  1
  6 24  1  0
  7  8  1  0
  8 23  1  0
  8  9  2  0
  9 10  1  0
 10 11  2  0
 11 12  1  0
 12 13  1  0
 12 23  2  0
 13 14  1  0
 14 15  2  0
 14 16  1  0
 16 17  1  0
 17 18  2  0
 17 22  1  0
 18 19  1  0
 19 20  2  0
 20 21  1  0
 21 22  2  0
M  END
>  <original SMILES>  (627) 
CC1(C)COC(Cc2cccc(NC(=O)Nc3cccnc3)c2)N1

>  <AutoDock Predicted Affinity>  (627) 
-6.698646

>  <ref_pdb>  (627) 
x0434_0

>  <ref_mols>  (627) 
x0434_0

>  <creator>  (627) 
Will Poole

>  <energy minimised>  (627) 
True

$$$$
WPC1537_minimised.pdb
     RDKit          3D

 24 26  0  0  1  0  0  0  0  0999 V2000
   10.5190    2.1120   21.8000 C   0  0  0  0  0  0  0  0  0  0  0  0
   11.0920    2.7070   23.0930 C   0  0  1  0  0  0  0  0  0  0  0  0
   10.0340    2.7680   24.2160 C   0  0  0  0  0  0  0  0  0  0  0  0
    9.9310    1.4990   25.1050 C   0  0  0  0  0  0  0  0  0  0  0  0
    9.6310    0.2160   24.3540 C   0  0  0  0  0  0  0  0  0  0  0  0
   10.4690   -0.9040   24.4770 C   0  0  0  0  0  0  0  0  0  0  0  0
   10.2060   -2.0780   23.7470 C   0  0  0  0  0  0  0  0  0  0  0  0
    9.0930   -2.1310   22.8900 C   0  0  0  0  0  0  0  0  0  0  0  0
    8.2470   -1.0180   22.7920 C   0  0  0  0  0  0  0  0  0  0  0  0
    7.1240   -1.0110   21.9570 N   0  0  0  0  0  0  0  0  0  0  0  0
    7.1050   -0.4580   20.7100 C   0  0  0  0  0  0  0  0  0  0  0  0
    8.0840   -0.2420   20.0220 O   0  0  0  0  0  0  0  0  0  0  0  0
    5.8280   -0.1230   20.3570 N   0  0  0  0  0  0  0  0  0  0  0  0
    5.4320    0.6120   19.2190 C   0  0  0  0  0  0  0  0  0  0  0  0
    4.4430    1.5930   19.3580 C   0  0  0  0  0  0  0  0  0  0  0  0
    4.1080    2.3440   18.2260 C   0  0  0  0  0  0  0  0  0  0  0  0
    4.7730    2.1050   17.0170 C   0  0  0  0  0  0  0  0  0  0  0  0
    5.7030    1.1340   16.8650 N   0  0  0  0  0  0  0  0  0  0  0  0
    6.0330    0.4180   17.9580 C   0  0  0  0  0  0  0  0  0  0  0  0
    8.5030    0.1400   23.5310 C   0  0  0  0  0  0  0  0  0  0  0  0
   12.5080    2.3260   23.4580 C   0  0  0  0  0  0  0  0  0  0  0  0
   12.2100    3.7450   23.0400 C   0  0  0  0  0  0  0  0  0  0  0  0
   12.3430    5.2070   24.3120 Br  0  0  0  0  0  0  0  0  0  0  0  0
   13.0050    4.3660   21.3880 Br  0  0  0  0  0  0  0  0  0  0  0  0
  2  1  1  6
  2  3  1  0
  2 21  1  0
  2 22  1  0
  3  4  1  0
  4  5  1  0
  5  6  2  0
  5 20  1  0
  6  7  1  0
  7  8  2  0
  8  9  1  0
  9 10  1  0
  9 20  2  0
 10 11  1  0
 11 13  1  0
 11 12  2  0
 13 14  1  0
 14 15  2  0
 14 19  1  0
 15 16  1  0
 16 17  2  0
 17 18  1  0
 18 19  2  0
 21 22  1  0
 22 24  1  0
 22 23  1  0
M  END
>  <original SMILES>  (628) 
CC1(CCc2cccc(NC(=O)Nc3cccnc3)c2)CC1(Br)Br

>  <AutoDock Predicted Affinity>  (628) 
-6.74809

>  <ref_pdb>  (628) 
x0434_0

>  <ref_mols>  (628) 
x0434_0

>  <creator>  (628) 
Will Poole

>  <energy minimised>  (628) 
True

$$$$
WPC1623_minimised.pdb
     RDKit          3D

 24 26  0  0  0  0  0  0  0  0999 V2000
    8.5240    5.7030   22.3030 C   0  0  0  0  0  0  0  0  0  0  0  0
    9.7350    5.0320   22.8780 C   0  0  0  0  0  0  0  0  0  0  0  0
    9.7590    3.5520   23.0580 C   0  0  0  0  0  0  0  0  0  0  0  0
   11.0510    3.4540   23.7200 N   0  0  0  0  0  0  0  0  0  0  0  0
   11.5480    2.1760   24.2540 C   0  0  0  0  0  0  0  0  0  0  0  0
   11.2840    0.9570   23.3870 C   0  0  0  0  0  0  0  0  0  0  0  0
   12.3450    0.3060   22.7300 C   0  0  0  0  0  0  0  0  0  0  0  0
   12.0910   -0.8090   21.9130 C   0  0  0  0  0  0  0  0  0  0  0  0
   10.7700   -1.2400   21.7150 C   0  0  0  0  0  0  0  0  0  0  0  0
    9.7120   -0.5730   22.3470 C   0  0  0  0  0  0  0  0  0  0  0  0
    8.3770   -0.8040   21.9660 N   0  0  0  0  0  0  0  0  0  0  0  0
    7.9040   -0.4150   20.7420 C   0  0  0  0  0  0  0  0  0  0  0  0
    8.6160   -0.1390   19.7970 O   0  0  0  0  0  0  0  0  0  0  0  0
    6.5430   -0.2890   20.6870 N   0  0  0  0  0  0  0  0  0  0  0  0
    5.8550    0.3490   19.6250 C   0  0  0  0  0  0  0  0  0  0  0  0
    4.9420    1.3710   19.9150 C   0  0  0  0  0  0  0  0  0  0  0  0
    4.3920    2.0790   18.8370 C   0  0  0  0  0  0  0  0  0  0  0  0
    4.7810    1.7610   17.5260 C   0  0  0  0  0  0  0  0  0  0  0  0
    5.6290    0.7490   17.2380 N   0  0  0  0  0  0  0  0  0  0  0  0
    6.1580    0.0700   18.2740 C   0  0  0  0  0  0  0  0  0  0  0  0
    9.9740    0.4800   23.2260 C   0  0  0  0  0  0  0  0  0  0  0  0
   11.6540    4.6910   23.8750 C   0  0  0  0  0  0  0  0  0  0  0  0
   12.7340    4.8960   24.3920 O   0  0  0  0  0  0  0  0  0  0  0  0
   10.7540    5.6360   23.3850 N   0  0  0  0  0  0  0  0  0  0  0  0
  1  2  1  0
  2  3  1  0
  2 24  2  0
  3  4  1  0
  4 22  1  0
  4  5  1  0
  5  6  1  0
  6 21  1  0
  6  7  2  0
  7  8  1  0
  8  9  2  0
  9 10  1  0
 10 11  1  0
 10 21  2  0
 11 12  1  0
 12 13  2  0
 12 14  1  0
 14 15  1  0
 15 16  2  0
 15 20  1  0
 16 17  1  0
 17 18  2  0
 18 19  1  0
 19 20  2  0
 22 24  1  0
 22 23  2  0
M  END
>  <original SMILES>  (629) 
CC1=NC(=O)N(Cc2cccc(NC(=O)Nc3cccnc3)c2)C1

>  <AutoDock Predicted Affinity>  (629) 
-6.43837

>  <ref_pdb>  (629) 
x0434_0

>  <ref_mols>  (629) 
x0434_0

>  <creator>  (629) 
Will Poole

>  <energy minimised>  (629) 
True

$$$$
WPC2377_minimised.pdb
     RDKit          3D

 24 26  0  0  0  0  0  0  0  0999 V2000
    9.4490    5.8940   22.9900 C   0  0  0  0  0  0  0  0  0  0  0  0
   10.5440    4.8970   23.2730 C   0  0  0  0  0  0  0  0  0  0  0  0
   11.9630    5.2490   22.9390 C   0  0  0  0  0  0  0  0  0  0  0  0
   12.6280    3.9820   23.3800 C   0  0  0  0  0  0  0  0  0  0  0  0
   13.8280    3.7810   23.3690 O   0  0  0  0  0  0  0  0  0  0  0  0
   11.6320    3.1570   23.8680 N   0  0  0  0  0  0  0  0  0  0  0  0
   11.8630    1.7880   24.3350 C   0  0  0  0  0  0  0  0  0  0  0  0
   11.4320    0.7270   23.3470 C   0  0  0  0  0  0  0  0  0  0  0  0
   12.3860   -0.0420   22.6560 C   0  0  0  0  0  0  0  0  0  0  0  0
   11.9680   -1.0710   21.7990 C   0  0  0  0  0  0  0  0  0  0  0  0
   10.5960   -1.3040   21.6080 C   0  0  0  0  0  0  0  0  0  0  0  0
    9.6470   -0.4970   22.2480 C   0  0  0  0  0  0  0  0  0  0  0  0
    8.2800   -0.5990   21.9240 N   0  0  0  0  0  0  0  0  0  0  0  0
    7.7850   -0.2940   20.6870 C   0  0  0  0  0  0  0  0  0  0  0  0
    8.4830   -0.1160   19.7080 O   0  0  0  0  0  0  0  0  0  0  0  0
    6.4240   -0.1520   20.6530 N   0  0  0  0  0  0  0  0  0  0  0  0
    5.7190    0.4480   19.5810 C   0  0  0  0  0  0  0  0  0  0  0  0
    4.7930    1.4620   19.8560 C   0  0  0  0  0  0  0  0  0  0  0  0
    4.2400    2.1510   18.7690 C   0  0  0  0  0  0  0  0  0  0  0  0
    4.6370    1.8230   17.4640 C   0  0  0  0  0  0  0  0  0  0  0  0
    5.4900    0.8100   17.1880 N   0  0  0  0  0  0  0  0  0  0  0  0
    6.0230    0.1500   18.2340 C   0  0  0  0  0  0  0  0  0  0  0  0
   10.0640    0.5010   23.1340 C   0  0  0  0  0  0  0  0  0  0  0  0
   10.4030    3.7550   23.8340 N   0  0  0  0  0  0  0  0  0  0  0  0
  1  2  1  0
  2  3  1  0
  2 24  2  0
  3  4  1  0
  4  5  2  0
  4  6  1  0
  6 24  1  0
  6  7  1  0
  7  8  1  0
  8 23  1  0
  8  9  2  0
  9 10  1  0
 10 11  2  0
 11 12  1  0
 12 13  1  0
 12 23  2  0
 13 14  1  0
 14 15  2  0
 14 16  1  0
 16 17  1  0
 17 18  2  0
 17 22  1  0
 18 19  1  0
 19 20  2  0
 20 21  1  0
 21 22  2  0
M  END
>  <original SMILES>  (630) 
CC1=NN(Cc2cccc(NC(=O)Nc3cccnc3)c2)C(=O)C1

>  <AutoDock Predicted Affinity>  (630) 
-6.500615

>  <ref_pdb>  (630) 
x0434_0

>  <ref_mols>  (630) 
x0434_0

>  <creator>  (630) 
Will Poole

>  <energy minimised>  (630) 
True

$$$$
WPC2341_minimised.pdb
     RDKit          3D

 24 26  0  0  1  0  0  0  0  0999 V2000
   14.3450    3.9370   22.8760 C   0  0  0  0  0  0  0  0  0  0  0  0
   12.8590    4.1360   22.7980 C   0  0  0  0  0  0  0  0  0  0  0  0
   12.2680    4.8200   21.8930 N   0  0  0  0  0  0  0  0  0  0  0  0
   10.9800    5.0090   22.3040 N   0  0  0  0  0  0  0  0  0  0  0  0
   10.7140    4.4670   23.5260 C   0  0  0  0  0  0  0  0  0  0  0  0
    9.6420    4.4770   24.0960 O   0  0  0  0  0  0  0  0  0  0  0  0
   12.0090    3.8620   24.0140 C   0  0  1  0  0  0  0  0  0  0  0  0
   11.8840    2.3750   24.4450 C   0  0  0  0  0  0  0  0  0  0  0  0
   11.4400    1.3740   23.4000 C   0  0  0  0  0  0  0  0  0  0  0  0
   12.3860    0.5250   22.7960 C   0  0  0  0  0  0  0  0  0  0  0  0
   11.9710   -0.5050   21.9390 C   0  0  0  0  0  0  0  0  0  0  0  0
   10.6030   -0.6900   21.6910 C   0  0  0  0  0  0  0  0  0  0  0  0
    9.6590    0.1620   22.2820 C   0  0  0  0  0  0  0  0  0  0  0  0
    8.2930    0.0230   21.9790 N   0  0  0  0  0  0  0  0  0  0  0  0
    7.7750    0.1810   20.7270 C   0  0  0  0  0  0  0  0  0  0  0  0
    8.4550    0.3420   19.7330 O   0  0  0  0  0  0  0  0  0  0  0  0
    6.4100    0.1920   20.6930 N   0  0  0  0  0  0  0  0  0  0  0  0
    5.6570    0.6400   19.5840 C   0  0  0  0  0  0  0  0  0  0  0  0
    4.6760    1.6180   19.7880 C   0  0  0  0  0  0  0  0  0  0  0  0
    4.0710    2.1740   18.6550 C   0  0  0  0  0  0  0  0  0  0  0  0
    4.4750    1.7550   17.3790 C   0  0  0  0  0  0  0  0  0  0  0  0
    5.3800    0.7720   17.1740 N   0  0  0  0  0  0  0  0  0  0  0  0
    5.9650    0.2410   18.2650 C   0  0  0  0  0  0  0  0  0  0  0  0
   10.0730    1.1880   23.1400 C   0  0  0  0  0  0  0  0  0  0  0  0
  1  2  1  0
  2  3  2  0
  2  7  1  0
  3  4  1  0
  4  5  1  0
  5  6  2  0
  5  7  1  0
  7  8  1  6
  8  9  1  0
  9 24  1  0
  9 10  2  0
 10 11  1  0
 11 12  2  0
 12 13  1  0
 13 14  1  0
 13 24  2  0
 14 15  1  0
 15 16  2  0
 15 17  1  0
 17 18  1  0
 18 19  2  0
 18 23  1  0
 19 20  1  0
 20 21  2  0
 21 22  1  0
 22 23  2  0
M  END
>  <original SMILES>  (631) 
CC1=NNC(=O)C1Cc1cccc(NC(=O)Nc2cccnc2)c1

>  <AutoDock Predicted Affinity>  (631) 
-6.3788

>  <ref_pdb>  (631) 
x0434_0

>  <ref_mols>  (631) 
x0434_0

>  <creator>  (631) 
Will Poole

>  <energy minimised>  (631) 
True

$$$$
WPC2232_minimised.pdb
     RDKit          3D

 24 26  0  0  1  0  0  0  0  0999 V2000
    9.2640    5.1080   23.0700 C   0  0  0  0  0  0  0  0  0  0  0  0
   10.7150    5.2890   23.4380 C   0  0  0  0  0  0  0  0  0  0  0  0
   11.2220    6.3100   24.0300 N   0  0  0  0  0  0  0  0  0  0  0  0
   12.5710    6.0960   24.1060 N   0  0  0  0  0  0  0  0  0  0  0  0
   12.9640    4.9060   23.5580 C   0  0  0  0  0  0  0  0  0  0  0  0
   14.1160    4.5330   23.4450 O   0  0  0  0  0  0  0  0  0  0  0  0
   11.6980    4.1820   23.1680 C   0  0  1  0  0  0  0  0  0  0  0  0
   11.2990    2.8570   24.3810 S   0  0  0  0  0  0  0  0  0  0  0  0
   11.2110    1.3940   23.3950 C   0  0  0  0  0  0  0  0  0  0  0  0
   12.3680    0.7680   22.9050 C   0  0  0  0  0  0  0  0  0  0  0  0
   12.2490   -0.3870   22.1120 C   0  0  0  0  0  0  0  0  0  0  0  0
   10.9750   -0.9030   21.8120 C   0  0  0  0  0  0  0  0  0  0  0  0
    9.8250   -0.2650   22.3030 C   0  0  0  0  0  0  0  0  0  0  0  0
    8.5340   -0.6640   21.9080 N   0  0  0  0  0  0  0  0  0  0  0  0
    7.9970   -0.3040   20.7050 C   0  0  0  0  0  0  0  0  0  0  0  0
    8.6580    0.1080   19.7750 O   0  0  0  0  0  0  0  0  0  0  0  0
    6.6320   -0.3600   20.6550 N   0  0  0  0  0  0  0  0  0  0  0  0
    5.8820    0.2530   19.6220 C   0  0  0  0  0  0  0  0  0  0  0  0
    4.9620    1.2590   19.9440 C   0  0  0  0  0  0  0  0  0  0  0  0
    4.3820    1.9730   18.8860 C   0  0  0  0  0  0  0  0  0  0  0  0
    4.7450    1.6720   17.5640 C   0  0  0  0  0  0  0  0  0  0  0  0
    5.6000    0.6750   17.2460 N   0  0  0  0  0  0  0  0  0  0  0  0
    6.1640   -0.0060   18.2640 C   0  0  0  0  0  0  0  0  0  0  0  0
    9.9470    0.8760   23.1010 C   0  0  0  0  0  0  0  0  0  0  0  0
  1  2  1  0
  2  3  2  0
  2  7  1  0
  3  4  1  0
  4  5  1  0
  5  6  2  0
  5  7  1  0
  7  8  1  1
  8  9  1  0
  9 24  1  0
  9 10  2  0
 10 11  1  0
 11 12  2  0
 12 13  1  0
 13 14  1  0
 13 24  2  0
 14 15  1  0
 15 16  2  0
 15 17  1  0
 17 18  1  0
 18 19  2  0
 18 23  1  0
 19 20  1  0
 20 21  2  0
 21 22  1  0
 22 23  2  0
M  END
>  <original SMILES>  (632) 
CC1=NNC(=O)C1Sc1cccc(NC(=O)Nc2cccnc2)c1

>  <AutoDock Predicted Affinity>  (632) 
-5.726147

>  <ref_pdb>  (632) 
x0434_0

>  <ref_mols>  (632) 
x0434_0

>  <creator>  (632) 
Will Poole

>  <energy minimised>  (632) 
True

$$$$
WPC2574_minimised.pdb
     RDKit          3D

 24 26  0  0  1  0  0  0  0  0999 V2000
    9.6280    5.2850   23.1870 C   0  0  0  0  0  0  0  0  0  0  0  0
   11.0670    5.4340   23.5640 C   0  0  0  0  0  0  0  0  0  0  0  0
   11.5240    6.1220   24.6040 N   0  0  0  0  0  0  0  0  0  0  0  0
   12.9400    5.9950   24.5800 O   0  0  0  0  0  0  0  0  0  0  0  0
   13.3060    5.2120   23.4260 N   0  0  0  0  0  0  0  0  0  0  0  0
   14.4400    4.7560   23.2270 O   0  0  0  0  0  0  0  0  0  0  0  0
   12.1440    4.8650   22.8340 C   0  0  0  0  0  0  0  0  0  0  0  0
   12.2180    3.8600   21.3950 S   0  0  0  0  0  0  0  0  0  0  0  0
   11.6290    2.4410   22.2920 C   0  0  0  0  0  0  0  0  0  0  0  0
   12.4250    1.7910   23.2470 C   0  0  0  0  0  0  0  0  0  0  0  0
   11.9160    0.6790   23.9380 C   0  0  0  0  0  0  0  0  0  0  0  0
   10.6300    0.1880   23.6450 C   0  0  0  0  0  0  0  0  0  0  0  0
    9.8540    0.8110   22.6570 C   0  0  0  0  0  0  0  0  0  0  0  0
    8.5690    0.3210   22.3260 N   0  0  0  0  0  0  0  0  0  0  0  0
    8.0530    0.2980   21.0570 C   0  0  0  0  0  0  0  0  0  0  0  0
    8.7160    0.5050   20.0610 O   0  0  0  0  0  0  0  0  0  0  0  0
    6.7000    0.1080   20.9880 N   0  0  0  0  0  0  0  0  0  0  0  0
    5.9400    0.4970   19.8580 C   0  0  0  0  0  0  0  0  0  0  0  0
    4.9640    1.4880   20.0180 C   0  0  0  0  0  0  0  0  0  0  0  0
    4.3780    2.0180   18.8630 C   0  0  0  0  0  0  0  0  0  0  0  0
    4.7860    1.5540   17.6040 C   0  0  0  0  0  0  0  0  0  0  0  0
    5.6850    0.5580   17.4390 N   0  0  0  0  0  0  0  0  0  0  0  0
    6.2610    0.0590   18.5530 C   0  0  0  0  0  0  0  0  0  0  0  0
   10.3540    1.9470   22.0010 C   0  0  0  0  0  0  0  0  0  0  0  0
  1  2  1  0
  2  3  2  0
  2  7  1  0
  3  4  1  0
  4  5  1  0
  5  6  1  0
  5  7  1  0
  7  8  1  0
  8  9  1  0
  9 24  1  0
  9 10  2  0
 10 11  1  0
 11 12  2  0
 12 13  1  0
 13 14  1  0
 13 24  2  0
 14 15  1  0
 15 16  2  0
 15 17  1  0
 17 18  1  0
 18 19  2  0
 18 23  1  0
 19 20  1  0
 20 21  2  0
 21 22  1  0
 22 23  2  0
M  END
>  <original SMILES>  (633) 
CC1=NON(O)C1Sc1cccc(NC(=O)Nc2cccnc2)c1

>  <AutoDock Predicted Affinity>  (633) 
-6.510475

>  <ref_pdb>  (633) 
x0434_0

>  <ref_mols>  (633) 
x0434_0

>  <creator>  (633) 
Will Poole

>  <energy minimised>  (633) 
True

$$$$
WPC2463_minimised.pdb
     RDKit          3D

 24 26  0  0  1  0  0  0  0  0999 V2000
    9.8460    3.5350   23.3340 C   0  0  0  0  0  0  0  0  0  0  0  0
   11.2040    4.1730   23.4960 C   0  0  1  0  0  0  0  0  0  0  0  0
   12.4630    3.6240   23.0860 C   0  0  0  0  0  0  0  0  0  0  0  0
   12.9330    2.0790   22.3540 S   0  0  0  0  0  0  0  0  0  0  0  0
   11.6820    1.0570   23.0940 C   0  0  0  0  0  0  0  0  0  0  0  0
   11.8030    0.6350   24.4210 C   0  0  0  0  0  0  0  0  0  0  0  0
   10.7640   -0.0890   25.0260 C   0  0  0  0  0  0  0  0  0  0  0  0
    9.6190   -0.4200   24.2830 C   0  0  0  0  0  0  0  0  0  0  0  0
    9.5160   -0.0470   22.9320 C   0  0  0  0  0  0  0  0  0  0  0  0
    8.2910   -0.2980   22.2660 N   0  0  0  0  0  0  0  0  0  0  0  0
    7.9430   -0.0290   20.9680 C   0  0  0  0  0  0  0  0  0  0  0  0
    8.7080    0.2820   20.0770 O   0  0  0  0  0  0  0  0  0  0  0  0
    6.5910   -0.0800   20.7800 N   0  0  0  0  0  0  0  0  0  0  0  0
    5.9210    0.4700   19.6640 C   0  0  0  0  0  0  0  0  0  0  0  0
    4.9430    1.4490   19.8800 C   0  0  0  0  0  0  0  0  0  0  0  0
    4.3950    2.0790   18.7570 C   0  0  0  0  0  0  0  0  0  0  0  0
    4.8400    1.7230   17.4760 C   0  0  0  0  0  0  0  0  0  0  0  0
    5.7480    0.7460   17.2580 N   0  0  0  0  0  0  0  0  0  0  0  0
    6.2920    0.1520   18.3400 C   0  0  0  0  0  0  0  0  0  0  0  0
   10.5690    0.6740   22.3390 C   0  0  0  0  0  0  0  0  0  0  0  0
   13.4430    4.5080   23.2540 N   0  0  0  0  0  0  0  0  0  0  0  0
   12.8530    5.6780   23.7950 O   0  0  0  0  0  0  0  0  0  0  0  0
   11.4420    5.4460   23.9040 N   0  0  0  0  0  0  0  0  0  0  0  0
   10.6310    6.3510   24.1430 O   0  0  0  0  0  0  0  0  0  0  0  0
  2  1  1  6
  2  3  1  0
  2 23  1  0
  3  4  1  0
  3 21  2  0
  4  5  1  0
  5  6  2  0
  5 20  1  0
  6  7  1  0
  7  8  2  0
  8  9  1  0
  9 10  1  0
  9 20  2  0
 10 11  1  0
 11 13  1  0
 11 12  2  0
 13 14  1  0
 14 15  2  0
 14 19  1  0
 15 16  1  0
 16 17  2  0
 17 18  1  0
 18 19  2  0
 21 22  1  0
 22 23  1  0
 23 24  1  0
M  END
>  <original SMILES>  (634) 
CC1C(Sc2cccc(NC(=O)Nc3cccnc3)c2)=NON1O

>  <AutoDock Predicted Affinity>  (634) 
-6.718333

>  <ref_pdb>  (634) 
x0434_0

>  <ref_mols>  (634) 
x0434_0

>  <creator>  (634) 
Will Poole

>  <energy minimised>  (634) 
True

$$$$
WPC1139_minimised.pdb
     RDKit          3D

 24 26  0  0  1  0  0  0  0  0999 V2000
    9.9680    6.0450   23.0840 C   0  0  0  0  0  0  0  0  0  0  0  0
   10.6870    4.6880   23.1740 C   0  0  1  0  0  0  0  0  0  0  0  0
   12.2280    4.7800   23.2190 C   0  0  0  0  0  0  0  0  0  0  0  0
   12.8370    3.4190   23.4950 C   0  0  0  0  0  0  0  0  0  0  0  0
   12.1500    2.3750   23.9850 C   0  0  0  0  0  0  0  0  0  0  0  0
   12.7720    1.0140   24.2220 C   0  0  0  0  0  0  0  0  0  0  0  0
   12.5810    0.0860   23.0520 C   0  0  0  0  0  0  0  0  0  0  0  0
   13.6790   -0.2840   22.2660 C   0  0  0  0  0  0  0  0  0  0  0  0
   13.5010   -1.1350   21.1690 C   0  0  0  0  0  0  0  0  0  0  0  0
   12.2060   -1.5520   20.8260 C   0  0  0  0  0  0  0  0  0  0  0  0
   11.1040   -1.1660   21.6010 C   0  0  0  0  0  0  0  0  0  0  0  0
    9.7780   -1.4090   21.1890 N   0  0  0  0  0  0  0  0  0  0  0  0
    8.9310   -0.4190   20.7520 C   0  0  0  0  0  0  0  0  0  0  0  0
    9.2380    0.7560   20.6970 O   0  0  0  0  0  0  0  0  0  0  0  0
    7.7110   -0.8750   20.3340 N   0  0  0  0  0  0  0  0  0  0  0  0
    6.7840   -0.1180   19.5710 C   0  0  0  0  0  0  0  0  0  0  0  0
    6.1370    0.9970   20.1230 C   0  0  0  0  0  0  0  0  0  0  0  0
    5.2790    1.7370   19.2940 C   0  0  0  0  0  0  0  0  0  0  0  0
    5.1250    1.3680   17.9480 C   0  0  0  0  0  0  0  0  0  0  0  0
    5.7350    0.2840   17.4170 N   0  0  0  0  0  0  0  0  0  0  0  0
    6.5510   -0.4290   18.2180 C   0  0  0  0  0  0  0  0  0  0  0  0
   11.3050   -0.4000   22.7460 C   0  0  0  0  0  0  0  0  0  0  0  0
   10.6790    2.4570   24.3450 C   0  0  0  0  0  0  0  0  0  0  0  0
   10.1400    3.8890   24.3430 C   0  0  0  0  0  0  0  0  0  0  0  0
  2  1  1  1
  2  3  1  0
  2 24  1  0
  3  4  1  0
  4  5  2  0
  5 23  1  0
  5  6  1  0
  6  7  1  0
  7 22  1  0
  7  8  2  0
  8  9  1  0
  9 10  2  0
 10 11  1  0
 11 12  1  0
 11 22  2  0
 12 13  1  0
 13 14  2  0
 13 15  1  0
 15 16  1  0
 16 17  2  0
 16 21  1  0
 17 18  1  0
 18 19  2  0
 19 20  1  0
 20 21  2  0
 23 24  1  0
M  END
>  <original SMILES>  (635) 
CC1CC=C(Cc2cccc(NC(=O)Nc3cccnc3)c2)CC1

>  <AutoDock Predicted Affinity>  (635) 
-7.32301

>  <ref_pdb>  (635) 
x0434_0

>  <ref_mols>  (635) 
x0434_0

>  <creator>  (635) 
Will Poole

>  <energy minimised>  (635) 
True

$$$$
WPC2029_minimised.pdb
     RDKit          3D

 24 26  0  0  0  0  0  0  0  0999 V2000
   12.1420    6.7560   24.7620 C   0  0  0  0  0  0  0  0  0  0  0  0
   12.2810    5.2570   24.5150 C   0  0  0  0  0  0  0  0  0  0  0  0
   10.9500    4.5420   24.8660 C   0  0  0  0  0  0  0  0  0  0  0  0
   10.8980    3.0690   24.4110 C   0  0  0  0  0  0  0  0  0  0  0  0
   12.2370    2.6070   24.0170 N   0  0  0  0  0  0  0  0  0  0  0  0
   12.5450    1.1780   24.1700 C   0  0  0  0  0  0  0  0  0  0  0  0
   11.8810    0.2640   23.1610 C   0  0  0  0  0  0  0  0  0  0  0  0
   12.6800   -0.4980   22.2920 C   0  0  0  0  0  0  0  0  0  0  0  0
   12.0860   -1.4190   21.4220 C   0  0  0  0  0  0  0  0  0  0  0  0
   10.6900   -1.5540   21.4010 C   0  0  0  0  0  0  0  0  0  0  0  0
    9.8860   -0.7420   22.2060 C   0  0  0  0  0  0  0  0  0  0  0  0
    8.4920   -0.7030   21.9910 N   0  0  0  0  0  0  0  0  0  0  0  0
    7.9420   -0.3530   20.7860 C   0  0  0  0  0  0  0  0  0  0  0  0
    8.5990   -0.1730   19.7790 O   0  0  0  0  0  0  0  0  0  0  0  0
    6.5830   -0.1860   20.8000 N   0  0  0  0  0  0  0  0  0  0  0  0
    5.8450    0.3790   19.7290 C   0  0  0  0  0  0  0  0  0  0  0  0
    4.9230    1.3990   19.9980 C   0  0  0  0  0  0  0  0  0  0  0  0
    4.3290    2.0460   18.9060 C   0  0  0  0  0  0  0  0  0  0  0  0
    4.6850    1.6750   17.6010 C   0  0  0  0  0  0  0  0  0  0  0  0
    5.5290    0.6550   17.3310 N   0  0  0  0  0  0  0  0  0  0  0  0
    6.1020    0.0340   18.3820 C   0  0  0  0  0  0  0  0  0  0  0  0
   10.4800    0.1310   23.1200 C   0  0  0  0  0  0  0  0  0  0  0  0
   12.8730    3.3580   22.9150 C   0  0  0  0  0  0  0  0  0  0  0  0
   12.6890    4.8900   23.0700 C   0  0  0  0  0  0  0  0  0  0  0  0
  1  2  1  0
  2  3  1  0
  2 24  1  0
  3  4  1  0
  4  5  1  0
  5 23  1  0
  5  6  1  0
  6  7  1  0
  7 22  1  0
  7  8  2  0
  8  9  1  0
  9 10  2  0
 10 11  1  0
 11 12  1  0
 11 22  2  0
 12 13  1  0
 13 14  2  0
 13 15  1  0
 15 16  1  0
 16 17  2  0
 16 21  1  0
 17 18  1  0
 18 19  2  0
 19 20  1  0
 20 21  2  0
 23 24  1  0
M  END
>  <original SMILES>  (636) 
CC1CCN(Cc2cccc(NC(=O)Nc3cccnc3)c2)CC1

>  <AutoDock Predicted Affinity>  (636) 
-6.60934

>  <ref_pdb>  (636) 
x0434_0

>  <ref_mols>  (636) 
x0434_0

>  <creator>  (636) 
Will Poole

>  <energy minimised>  (636) 
True

$$$$
WPC2018_minimised.pdb
     RDKit          3D

 23 25  0  0  1  0  0  0  0  0999 V2000
    9.5920    6.0570   23.0510 C   0  0  0  0  0  0  0  0  0  0  0  0
   10.5530    5.1470   23.8310 C   0  0  2  0  0  0  0  0  0  0  0  0
   12.0520    5.4500   23.6390 C   0  0  0  0  0  0  0  0  0  0  0  0
   12.6640    4.1250   23.7770 N   0  0  0  0  0  0  0  0  0  0  0  0
   11.7760    3.2370   23.5390 C   0  0  1  0  0  0  0  0  0  0  0  0
   11.8920    1.8260   24.0570 C   0  0  0  0  0  0  0  0  0  0  0  0
   11.4040    0.7370   23.1280 C   0  0  0  0  0  0  0  0  0  0  0  0
   12.3170   -0.1240   22.4950 C   0  0  0  0  0  0  0  0  0  0  0  0
   11.8490   -1.1990   21.7260 C   0  0  0  0  0  0  0  0  0  0  0  0
   10.4690   -1.3930   21.5670 C   0  0  0  0  0  0  0  0  0  0  0  0
    9.5620   -0.5020   22.1550 C   0  0  0  0  0  0  0  0  0  0  0  0
    8.1930   -0.5750   21.8430 N   0  0  0  0  0  0  0  0  0  0  0  0
    7.7040   -0.2300   20.6160 C   0  0  0  0  0  0  0  0  0  0  0  0
    8.4070   -0.0040   19.6510 O   0  0  0  0  0  0  0  0  0  0  0  0
    6.3430   -0.1000   20.5790 N   0  0  0  0  0  0  0  0  0  0  0  0
    5.6410    0.5070   19.5120 C   0  0  0  0  0  0  0  0  0  0  0  0
    4.7160    1.5210   19.7890 C   0  0  0  0  0  0  0  0  0  0  0  0
    4.1680    2.2150   18.7030 C   0  0  0  0  0  0  0  0  0  0  0  0
    4.5730    1.8950   17.3990 C   0  0  0  0  0  0  0  0  0  0  0  0
    5.4280    0.8850   17.1220 N   0  0  0  0  0  0  0  0  0  0  0  0
    5.9520    0.2150   18.1660 C   0  0  0  0  0  0  0  0  0  0  0  0
   10.0260    0.5480   22.9520 C   0  0  0  0  0  0  0  0  0  0  0  0
   10.5210    3.7710   23.3700 N   0  0  0  0  0  0  0  0  0  0  0  0
  2  1  1  6
  2 23  1  0
  2  3  1  0
  3  4  1  0
  4  5  1  0
  5  6  1  1
  5 23  1  0
  6  7  1  0
  7 22  1  0
  7  8  2  0
  8  9  1  0
  9 10  2  0
 10 11  1  0
 11 12  1  0
 11 22  2  0
 12 13  1  0
 13 14  2  0
 13 15  1  0
 15 16  1  0
 16 17  2  0
 16 21  1  0
 17 18  1  0
 18 19  2  0
 19 20  1  0
 20 21  2  0
M  END
>  <original SMILES>  (637) 
CC1CNC(Cc2cccc(NC(=O)Nc3cccnc3)c2)N1

>  <AutoDock Predicted Affinity>  (637) 
-6.610327

>  <ref_pdb>  (637) 
x0434_0

>  <ref_mols>  (637) 
x0434_0

>  <creator>  (637) 
Will Poole

>  <energy minimised>  (637) 
True

$$$$
WPC1729_minimised.pdb
     RDKit          3D

 24 26  0  0  1  0  0  0  0  0999 V2000
    8.0950    5.4080   22.1260 C   0  0  0  0  0  0  0  0  0  0  0  0
    8.8420    4.1640   22.4460 C   0  0  2  0  0  0  0  0  0  0  0  0
    9.9490    4.1700   23.1650 N   0  0  0  0  0  0  0  0  0  0  0  0
   10.6180    2.9970   22.9160 C   0  0  0  0  0  0  0  0  0  0  0  0
   11.9890    2.7270   23.4590 C   0  0  0  0  0  0  0  0  0  0  0  0
   12.0300    1.2740   24.5960 S   0  0  0  0  0  0  0  0  0  0  0  0
   11.5210   -0.0570   23.5580 C   0  0  0  0  0  0  0  0  0  0  0  0
   12.4260   -0.5870   22.6280 C   0  0  0  0  0  0  0  0  0  0  0  0
   11.9850   -1.5400   21.7030 C   0  0  0  0  0  0  0  0  0  0  0  0
   10.6230   -1.8730   21.6520 C   0  0  0  0  0  0  0  0  0  0  0  0
    9.7040   -1.2600   22.5120 C   0  0  0  0  0  0  0  0  0  0  0  0
    8.3350   -1.2380   22.1660 N   0  0  0  0  0  0  0  0  0  0  0  0
    7.8970   -0.7490   20.9580 C   0  0  0  0  0  0  0  0  0  0  0  0
    8.6320   -0.5230   20.0150 O   0  0  0  0  0  0  0  0  0  0  0  0
    6.5540   -0.4890   20.8970 N   0  0  0  0  0  0  0  0  0  0  0  0
    5.9210    0.1970   19.8260 C   0  0  0  0  0  0  0  0  0  0  0  0
    5.0510    1.2590   20.1080 C   0  0  0  0  0  0  0  0  0  0  0  0
    4.5430    1.9950   19.0270 C   0  0  0  0  0  0  0  0  0  0  0  0
    4.9180    1.6570   17.7170 C   0  0  0  0  0  0  0  0  0  0  0  0
    5.7240    0.6100   17.4330 N   0  0  0  0  0  0  0  0  0  0  0  0
    6.2230   -0.0880   18.4740 C   0  0  0  0  0  0  0  0  0  0  0  0
   10.1650   -0.4190   23.5310 C   0  0  0  0  0  0  0  0  0  0  0  0
   10.0070    2.1470   22.0290 C   0  0  0  0  0  0  0  0  0  0  0  0
    8.3790    2.6450   21.7190 S   0  0  0  0  0  0  0  0  0  0  0  0
  2  1  1  6
  2  3  1  0
  2 24  1  0
  3  4  1  0
  4 23  2  0
  4  5  1  0
  5  6  1  0
  6  7  1  0
  7 22  1  0
  7  8  2  0
  8  9  1  0
  9 10  2  0
 10 11  1  0
 11 12  1  0
 11 22  2  0
 12 13  1  0
 13 14  2  0
 13 15  1  0
 15 16  1  0
 16 17  2  0
 16 21  1  0
 17 18  1  0
 18 19  2  0
 19 20  1  0
 20 21  2  0
 23 24  1  0
M  END
>  <original SMILES>  (638) 
CC1NC(CSc2cccc(NC(=O)Nc3cccnc3)c2)=CS1

>  <AutoDock Predicted Affinity>  (638) 
-5.25339

>  <ref_pdb>  (638) 
x0434_0

>  <ref_mols>  (638) 
x0434_0

>  <creator>  (638) 
Will Poole

>  <energy minimised>  (638) 
True

$$$$
WPC2607_minimised.pdb
     RDKit          3D

 23 24  0  0  0  0  0  0  0  0999 V2000
    8.4000    5.4740   22.1510 C   0  0  0  0  0  0  0  0  0  0  0  0
    8.7540    4.0760   22.6810 C   0  0  0  0  0  0  0  0  0  0  0  0
   10.0580    4.0690   23.4630 C   0  0  0  0  0  0  0  0  0  0  0  0
   10.1820    4.5210   24.5890 O   0  0  0  0  0  0  0  0  0  0  0  0
   11.0420    3.4600   22.7560 O   0  0  0  0  0  0  0  0  0  0  0  0
   12.3030    3.1650   23.3630 C   0  0  0  0  0  0  0  0  0  0  0  0
   12.1650    1.8320   24.1270 C   0  0  0  0  0  0  0  0  0  0  0  0
   11.6590    0.6970   23.2630 C   0  0  0  0  0  0  0  0  0  0  0  0
   12.5610   -0.1230   22.5650 C   0  0  0  0  0  0  0  0  0  0  0  0
   12.0820   -1.1750   21.7710 C   0  0  0  0  0  0  0  0  0  0  0  0
   10.7000   -1.3820   21.6470 C   0  0  0  0  0  0  0  0  0  0  0  0
    9.8000   -0.5330   22.3040 C   0  0  0  0  0  0  0  0  0  0  0  0
    8.4260   -0.5920   22.0030 N   0  0  0  0  0  0  0  0  0  0  0  0
    7.9220   -0.1700   20.8040 C   0  0  0  0  0  0  0  0  0  0  0  0
    8.6170    0.1770   19.8700 O   0  0  0  0  0  0  0  0  0  0  0  0
    6.5570   -0.1240   20.7450 N   0  0  0  0  0  0  0  0  0  0  0  0
    5.8420    0.4510   19.6660 C   0  0  0  0  0  0  0  0  0  0  0  0
    4.8970    1.4510   19.9220 C   0  0  0  0  0  0  0  0  0  0  0  0
    4.3410    2.1160   18.8210 C   0  0  0  0  0  0  0  0  0  0  0  0
    4.7540    1.7780   17.5240 C   0  0  0  0  0  0  0  0  0  0  0  0
    5.6260    0.7770   17.2660 N   0  0  0  0  0  0  0  0  0  0  0  0
    6.1650    0.1420   18.3260 C   0  0  0  0  0  0  0  0  0  0  0  0
   10.2780    0.4850   23.1350 C   0  0  0  0  0  0  0  0  0  0  0  0
  1  2  1  0
  2  3  1  0
  3  4  2  0
  3  5  1  0
  5  6  1  0
  6  7  1  0
  7  8  1  0
  8 23  2  0
  8  9  1  0
  9 10  2  0
 10 11  1  0
 11 12  2  0
 12 13  1  0
 12 23  1  0
 13 14  1  0
 14 15  2  0
 14 16  1  0
 16 17  1  0
 17 18  2  0
 17 22  1  0
 18 19  1  0
 19 20  2  0
 20 21  1  0
 21 22  2  0
M  END
>  <original SMILES>  (639) 
CCC(=O)OCCc1cccc(NC(=O)Nc2cccnc2)c1

>  <AutoDock Predicted Affinity>  (639) 
-5.433415

>  <ref_pdb>  (639) 
x0434_0

>  <ref_mols>  (639) 
x0434_0

>  <creator>  (639) 
Will Poole

>  <energy minimised>  (639) 
True

$$$$
WPC1699_minimised.pdb
     RDKit          3D

 24 25  0  0  1  0  0  0  0  0999 V2000
    9.4500    5.2090   23.3860 C   0  0  0  0  0  0  0  0  0  0  0  0
   10.8080    4.9680   22.6990 C   0  0  0  0  0  0  0  0  0  0  0  0
   12.0340    4.8690   23.6340 C   0  0  1  0  0  0  0  0  0  0  0  0
   12.0910    6.0070   24.6850 C   0  0  0  0  0  0  0  0  0  0  0  0
   11.8690    3.3050   24.6190 S   0  0  0  0  0  0  0  0  0  0  0  0
   11.6920    1.8920   23.5560 C   0  0  0  0  0  0  0  0  0  0  0  0
   12.8040    1.1910   23.0570 C   0  0  0  0  0  0  0  0  0  0  0  0
   12.6120    0.0380   22.2750 C   0  0  0  0  0  0  0  0  0  0  0  0
   11.3110   -0.4300   22.0200 C   0  0  0  0  0  0  0  0  0  0  0  0
   10.2040    0.2520   22.5520 C   0  0  0  0  0  0  0  0  0  0  0  0
    8.8880   -0.1460   22.2340 N   0  0  0  0  0  0  0  0  0  0  0  0
    8.2680    0.2290   21.0770 C   0  0  0  0  0  0  0  0  0  0  0  0
    8.8450    0.8240   20.1940 O   0  0  0  0  0  0  0  0  0  0  0  0
    6.9400   -0.0810   20.9810 N   0  0  0  0  0  0  0  0  0  0  0  0
    6.1400    0.3650   19.9000 C   0  0  0  0  0  0  0  0  0  0  0  0
    5.1570    1.3370   20.1250 C   0  0  0  0  0  0  0  0  0  0  0  0
    4.5350    1.9040   19.0050 C   0  0  0  0  0  0  0  0  0  0  0  0
    4.9080    1.4860   17.7180 C   0  0  0  0  0  0  0  0  0  0  0  0
    5.8220    0.5150   17.4930 N   0  0  0  0  0  0  0  0  0  0  0  0
    6.4410   -0.0070   18.5720 C   0  0  0  0  0  0  0  0  0  0  0  0
   10.3990    1.4110   23.3140 C   0  0  0  0  0  0  0  0  0  0  0  0
   13.3350    4.9140   22.8010 C   0  0  0  0  0  0  0  0  0  0  0  0
   13.5970    5.7710   21.9780 O   0  0  0  0  0  0  0  0  0  0  0  0
   14.3010    4.1630   23.3350 O   0  0  0  0  0  0  0  0  0  0  0  0
  1  2  1  0
  3  2  1  0
  3  4  1  1
  3 22  1  0
  3  5  1  0
  5  6  1  0
  6 21  2  0
  6  7  1  0
  7  8  2  0
  8  9  1  0
  9 10  2  0
 10 11  1  0
 10 21  1  0
 11 12  1  0
 12 13  2  0
 12 14  1  0
 14 15  1  0
 15 16  2  0
 15 20  1  0
 16 17  1  0
 17 18  2  0
 18 19  1  0
 19 20  2  0
 22 23  2  0
 22 24  1  0
M  END
>  <original SMILES>  (640) 
CCC(C)(Sc1cccc(NC(=O)Nc2cccnc2)c1)C(=O)O

>  <AutoDock Predicted Affinity>  (640) 
-5.457638

>  <ref_pdb>  (640) 
x0434_0

>  <ref_mols>  (640) 
x0434_0

>  <creator>  (640) 
Will Poole

>  <energy minimised>  (640) 
True

$$$$
WPC2546_minimised.pdb
     RDKit          3D

 24 25  0  0  1  0  0  0  0  0999 V2000
   14.1020    5.5490   21.7000 C   0  0  0  0  0  0  0  0  0  0  0  0
   13.7360    4.6410   22.8840 C   0  0  0  0  0  0  0  0  0  0  0  0
   12.3500    4.9620   23.4760 C   0  0  2  0  0  0  0  0  0  0  0  0
   12.3710    6.1210   24.4970 C   0  0  0  0  0  0  0  0  0  0  0  0
   11.9310    3.7590   24.1320 O   0  0  0  0  0  0  0  0  0  0  0  0
   10.6060    3.5410   24.3520 C   0  0  0  0  0  0  0  0  0  0  0  0
    9.7290    4.3740   24.2030 O   0  0  0  0  0  0  0  0  0  0  0  0
   10.3870    2.1460   24.9180 C   0  0  0  0  0  0  0  0  0  0  0  0
   10.4470    1.0730   23.8510 C   0  0  0  0  0  0  0  0  0  0  0  0
   11.6780    0.6010   23.3600 C   0  0  0  0  0  0  0  0  0  0  0  0
   11.7060   -0.3880   22.3620 C   0  0  0  0  0  0  0  0  0  0  0  0
   10.5000   -0.9000   21.8540 C   0  0  0  0  0  0  0  0  0  0  0  0
    9.2760   -0.4180   22.3420 C   0  0  0  0  0  0  0  0  0  0  0  0
    8.0500   -0.7930   21.7700 N   0  0  0  0  0  0  0  0  0  0  0  0
    7.6960   -0.4450   20.5000 C   0  0  0  0  0  0  0  0  0  0  0  0
    8.4850   -0.1830   19.6140 O   0  0  0  0  0  0  0  0  0  0  0  0
    6.3420   -0.3350   20.3580 N   0  0  0  0  0  0  0  0  0  0  0  0
    5.7120    0.3720   19.3110 C   0  0  0  0  0  0  0  0  0  0  0  0
    4.7720    1.3620   19.6240 C   0  0  0  0  0  0  0  0  0  0  0  0
    4.2730    2.1400   18.5720 C   0  0  0  0  0  0  0  0  0  0  0  0
    4.7410    1.9240   17.2680 C   0  0  0  0  0  0  0  0  0  0  0  0
    5.6210    0.9460   16.9560 N   0  0  0  0  0  0  0  0  0  0  0  0
    6.0990    0.1960   17.9680 C   0  0  0  0  0  0  0  0  0  0  0  0
    9.2510    0.5580   23.3400 C   0  0  0  0  0  0  0  0  0  0  0  0
  1  2  1  0
  2  3  1  0
  3  4  1  1
  3  5  1  0
  5  6  1  0
  6  7  2  0
  6  8  1  0
  8  9  1  0
  9 24  2  0
  9 10  1  0
 10 11  2  0
 11 12  1  0
 12 13  2  0
 13 14  1  0
 13 24  1  0
 14 15  1  0
 15 16  2  0
 15 17  1  0
 17 18  1  0
 18 19  2  0
 18 23  1  0
 19 20  1  0
 20 21  2  0
 21 22  1  0
 22 23  2  0
M  END
>  <original SMILES>  (641) 
CCC(C)OC(=O)Cc1cccc(NC(=O)Nc2cccnc2)c1

>  <AutoDock Predicted Affinity>  (641) 
-6.158413

>  <ref_pdb>  (641) 
x0434_0

>  <ref_mols>  (641) 
x0434_0

>  <creator>  (641) 
Will Poole

>  <energy minimised>  (641) 
True

$$$$
WPC1376_minimised.pdb
     RDKit          3D

 22 23  0  0  1  0  0  0  0  0999 V2000
   12.8400    5.1040   22.7740 C   0  0  0  0  0  0  0  0  0  0  0  0
   12.5720    3.6320   23.1300 C   0  0  0  0  0  0  0  0  0  0  0  0
   11.4110    3.4150   24.1350 C   0  0  1  0  0  0  0  0  0  0  0  0
   10.0430    3.8780   23.5710 C   0  0  0  0  0  0  0  0  0  0  0  0
    9.7810    5.3000   23.8400 N   0  0  0  0  0  0  0  0  0  0  0  0
   11.3720    1.9360   24.6050 C   0  0  0  0  0  0  0  0  0  0  0  0
   11.0820    0.9030   23.5340 C   0  0  0  0  0  0  0  0  0  0  0  0
   12.1370    0.2420   22.8780 C   0  0  0  0  0  0  0  0  0  0  0  0
   11.8650   -0.7700   21.9430 C   0  0  0  0  0  0  0  0  0  0  0  0
   10.5340   -1.0980   21.6480 C   0  0  0  0  0  0  0  0  0  0  0  0
    9.4830   -0.4110   22.2700 C   0  0  0  0  0  0  0  0  0  0  0  0
    8.1520   -0.5990   21.8590 N   0  0  0  0  0  0  0  0  0  0  0  0
    7.7180   -0.3120   20.5960 C   0  0  0  0  0  0  0  0  0  0  0  0
    8.4550   -0.1460   19.6440 O   0  0  0  0  0  0  0  0  0  0  0  0
    6.3620   -0.1570   20.5200 N   0  0  0  0  0  0  0  0  0  0  0  0
    5.6920    0.4690   19.4430 C   0  0  0  0  0  0  0  0  0  0  0  0
    4.7570    1.4740   19.7190 C   0  0  0  0  0  0  0  0  0  0  0  0
    4.2200    2.1790   18.6350 C   0  0  0  0  0  0  0  0  0  0  0  0
    4.6470    1.8780   17.3330 C   0  0  0  0  0  0  0  0  0  0  0  0
    5.5140    0.8780   17.0560 N   0  0  0  0  0  0  0  0  0  0  0  0
    6.0280    0.1990   18.0990 C   0  0  0  0  0  0  0  0  0  0  0  0
    9.7550    0.5660   23.2310 C   0  0  0  0  0  0  0  0  0  0  0  0
  1  2  1  0
  3  2  1  6
  3  4  1  0
  3  6  1  0
  4  5  1  0
  6  7  1  0
  7 22  2  0
  7  8  1  0
  8  9  2  0
  9 10  1  0
 10 11  2  0
 11 12  1  0
 11 22  1  0
 12 13  1  0
 13 14  2  0
 13 15  1  0
 15 16  1  0
 16 17  2  0
 16 21  1  0
 17 18  1  0
 18 19  2  0
 19 20  1  0
 20 21  2  0
M  END
>  <original SMILES>  (642) 
CCC(CN)Cc1cccc(NC(=O)Nc2cccnc2)c1

>  <AutoDock Predicted Affinity>  (642) 
-5.74194

>  <ref_pdb>  (642) 
x0434_0

>  <ref_mols>  (642) 
x0434_0

>  <creator>  (642) 
Will Poole

>  <energy minimised>  (642) 
True

$$$$
WPC1824_minimised.pdb
     RDKit          3D

 23 24  0  0  1  0  0  0  0  0999 V2000
   13.7430    5.3930   22.1010 C   0  0  0  0  0  0  0  0  0  0  0  0
   12.2910    4.9050   22.3150 C   0  0  0  0  0  0  0  0  0  0  0  0
   11.8830    4.7130   23.7970 C   0  0  1  0  0  0  0  0  0  0  0  0
   11.5970    6.0350   24.5440 C   0  0  0  0  0  0  0  0  0  0  0  0
   12.8410    6.7520   24.8310 N   0  0  0  0  0  0  0  0  0  0  0  0
   12.7450    7.8300   25.8190 C   0  0  0  0  0  0  0  0  0  0  0  0
   10.6610    3.7730   23.9460 C   0  0  0  0  0  0  0  0  0  0  0  0
   10.8260    2.3360   23.4510 C   0  0  0  0  0  0  0  0  0  0  0  0
   12.0690    1.6760   23.3420 C   0  0  0  0  0  0  0  0  0  0  0  0
   12.1360    0.3640   22.8430 C   0  0  0  0  0  0  0  0  0  0  0  0
   10.9610   -0.3130   22.4720 C   0  0  0  0  0  0  0  0  0  0  0  0
    9.7240    0.3320   22.6040 C   0  0  0  0  0  0  0  0  0  0  0  0
    8.5280   -0.2660   22.1630 N   0  0  0  0  0  0  0  0  0  0  0  0
    8.0350   -0.0610   20.9070 C   0  0  0  0  0  0  0  0  0  0  0  0
    8.7120    0.3230   19.9760 O   0  0  0  0  0  0  0  0  0  0  0  0
    6.6830   -0.2350   20.7990 N   0  0  0  0  0  0  0  0  0  0  0  0
    5.9370    0.2940   19.7190 C   0  0  0  0  0  0  0  0  0  0  0  0
    4.9880    1.2920   19.9720 C   0  0  0  0  0  0  0  0  0  0  0  0
    4.4090    1.9360   18.8700 C   0  0  0  0  0  0  0  0  0  0  0  0
    4.8000    1.5730   17.5720 C   0  0  0  0  0  0  0  0  0  0  0  0
    5.6830    0.5810   17.3190 N   0  0  0  0  0  0  0  0  0  0  0  0
    6.2520   -0.0260   18.3810 C   0  0  0  0  0  0  0  0  0  0  0  0
    9.6620    1.6440   23.0860 C   0  0  0  0  0  0  0  0  0  0  0  0
  1  2  1  0
  3  2  1  6
  3  4  1  0
  3  7  1  0
  4  5  1  0
  5  6  1  0
  7  8  1  0
  8 23  2  0
  8  9  1  0
  9 10  2  0
 10 11  1  0
 11 12  2  0
 12 13  1  0
 12 23  1  0
 13 14  1  0
 14 15  2  0
 14 16  1  0
 16 17  1  0
 17 18  2  0
 17 22  1  0
 18 19  1  0
 19 20  2  0
 20 21  1  0
 21 22  2  0
M  END
>  <original SMILES>  (643) 
CCC(CNC)Cc1cccc(NC(=O)Nc2cccnc2)c1

>  <AutoDock Predicted Affinity>  (643) 
-5.96838

>  <ref_pdb>  (643) 
x0434_0

>  <ref_mols>  (643) 
x0434_0

>  <creator>  (643) 
Will Poole

>  <energy minimised>  (643) 
True

$$$$
WPC2407_minimised.pdb
     RDKit          3D

 23 24  0  0  1  0  0  0  0  0999 V2000
   12.3550    6.6810   25.6600 C   0  0  0  0  0  0  0  0  0  0  0  0
   12.8180    6.0100   24.3340 C   0  0  0  0  0  0  0  0  0  0  0  0
   12.3370    4.7120   23.6010 C   0  0  2  0  0  0  0  0  0  0  0  0
   12.3380    4.9080   22.0730 C   0  0  0  0  0  0  0  0  0  0  0  0
   13.6090    5.3570   21.5890 O   0  0  0  0  0  0  0  0  0  0  0  0
   10.9870    4.2840   24.0420 N   0  0  0  0  0  0  0  0  0  0  0  0
   10.9240    2.9800   24.7170 C   0  0  0  0  0  0  0  0  0  0  0  0
   10.9280    1.8030   23.7590 C   0  0  0  0  0  0  0  0  0  0  0  0
   12.1260    1.2140   23.3090 C   0  0  0  0  0  0  0  0  0  0  0  0
   12.0860    0.1150   22.4320 C   0  0  0  0  0  0  0  0  0  0  0  0
   10.8500   -0.4060   22.0140 C   0  0  0  0  0  0  0  0  0  0  0  0
    9.6570    0.1710   22.4770 C   0  0  0  0  0  0  0  0  0  0  0  0
    8.3990   -0.2820   22.0370 N   0  0  0  0  0  0  0  0  0  0  0  0
    7.9240   -0.0770   20.7740 C   0  0  0  0  0  0  0  0  0  0  0  0
    8.6230    0.2340   19.8320 O   0  0  0  0  0  0  0  0  0  0  0  0
    6.5630   -0.1690   20.6800 N   0  0  0  0  0  0  0  0  0  0  0  0
    5.8280    0.3720   19.5990 C   0  0  0  0  0  0  0  0  0  0  0  0
    4.8640    1.3540   19.8580 C   0  0  0  0  0  0  0  0  0  0  0  0
    4.2850    2.0030   18.7600 C   0  0  0  0  0  0  0  0  0  0  0  0
    4.6920    1.6640   17.4620 C   0  0  0  0  0  0  0  0  0  0  0  0
    5.5880    0.6850   17.2020 N   0  0  0  0  0  0  0  0  0  0  0  0
    6.1520    0.0680   18.2590 C   0  0  0  0  0  0  0  0  0  0  0  0
    9.7000    1.2710   23.3400 C   0  0  0  0  0  0  0  0  0  0  0  0
  1  2  1  0
  3  2  1  1
  3  4  1  0
  3  6  1  0
  4  5  1  0
  6  7  1  0
  7  8  1  0
  8 23  2  0
  8  9  1  0
  9 10  2  0
 10 11  1  0
 11 12  2  0
 12 13  1  0
 12 23  1  0
 13 14  1  0
 14 15  2  0
 14 16  1  0
 16 17  1  0
 17 18  2  0
 17 22  1  0
 18 19  1  0
 19 20  2  0
 20 21  1  0
 21 22  2  0
M  END
>  <original SMILES>  (644) 
CCC(CO)NCc1cccc(NC(=O)Nc2cccnc2)c1

>  <AutoDock Predicted Affinity>  (644) 
-5.38273

>  <ref_pdb>  (644) 
x0434_0

>  <ref_mols>  (644) 
x0434_0

>  <creator>  (644) 
Will Poole

>  <energy minimised>  (644) 
True

$$$$
WPC1764_minimised.pdb
     RDKit          3D

 21 22  0  0  1  0  0  0  0  0999 V2000
   12.4280    5.2040   22.8970 C   0  0  0  0  0  0  0  0  0  0  0  0
   12.2180    3.7040   23.1460 C   0  0  0  0  0  0  0  0  0  0  0  0
   11.0640    3.4260   24.1290 C   0  0  1  0  0  0  0  0  0  0  0  0
    9.7790    3.7080   23.4820 N   0  0  0  0  0  0  0  0  0  0  0  0
   11.1130    1.9760   24.6580 C   0  0  0  0  0  0  0  0  0  0  0  0
   10.9140    0.9020   23.6060 C   0  0  0  0  0  0  0  0  0  0  0  0
   12.0160    0.2740   22.9940 C   0  0  0  0  0  0  0  0  0  0  0  0
   11.8120   -0.7450   22.0500 C   0  0  0  0  0  0  0  0  0  0  0  0
   10.5040   -1.1170   21.7030 C   0  0  0  0  0  0  0  0  0  0  0  0
    9.4090   -0.4660   22.2880 C   0  0  0  0  0  0  0  0  0  0  0  0
    8.1000   -0.6930   21.8330 N   0  0  0  0  0  0  0  0  0  0  0  0
    7.6880   -0.3560   20.5760 C   0  0  0  0  0  0  0  0  0  0  0  0
    8.4410   -0.1250   19.6500 O   0  0  0  0  0  0  0  0  0  0  0  0
    6.3320   -0.2270   20.4800 N   0  0  0  0  0  0  0  0  0  0  0  0
    5.6700    0.4250   19.4170 C   0  0  0  0  0  0  0  0  0  0  0  0
    4.7340    1.4260   19.7070 C   0  0  0  0  0  0  0  0  0  0  0  0
    4.2040    2.1510   18.6330 C   0  0  0  0  0  0  0  0  0  0  0  0
    4.6360    1.8730   17.3280 C   0  0  0  0  0  0  0  0  0  0  0  0
    5.5100    0.8820   17.0380 N   0  0  0  0  0  0  0  0  0  0  0  0
    6.0180    0.1840   18.0720 C   0  0  0  0  0  0  0  0  0  0  0  0
    9.6130    0.5240   23.2520 C   0  0  0  0  0  0  0  0  0  0  0  0
  1  2  1  0
  2  3  1  0
  3  4  1  6
  3  5  1  0
  5  6  1  0
  6 21  2  0
  6  7  1  0
  7  8  2  0
  8  9  1  0
  9 10  2  0
 10 11  1  0
 10 21  1  0
 11 12  1  0
 12 13  2  0
 12 14  1  0
 14 15  1  0
 15 16  2  0
 15 20  1  0
 16 17  1  0
 17 18  2  0
 18 19  1  0
 19 20  2  0
M  END
>  <original SMILES>  (645) 
CCC(N)Cc1cccc(NC(=O)Nc2cccnc2)c1

>  <AutoDock Predicted Affinity>  (645) 
-5.85725

>  <ref_pdb>  (645) 
x0434_0

>  <ref_mols>  (645) 
x0434_0

>  <creator>  (645) 
Will Poole

>  <energy minimised>  (645) 
True

$$$$
WPC1660_minimised.pdb
     RDKit          3D

 24 25  0  0  1  0  0  0  0  0999 V2000
   10.0990    6.2740   23.7550 C   0  0  0  0  0  0  0  0  0  0  0  0
   10.0550    5.1930   22.6710 C   0  0  0  0  0  0  0  0  0  0  0  0
   10.9960    4.0080   22.9850 C   0  0  2  0  0  0  0  0  0  0  0  0
   10.4800    3.3230   24.2040 N   0  0  0  0  0  0  0  0  0  0  0  0
   11.1960    2.0970   24.5830 C   0  0  0  0  0  0  0  0  0  0  0  0
   11.0340    0.9810   23.5740 C   0  0  0  0  0  0  0  0  0  0  0  0
   12.1570    0.3840   22.9740 C   0  0  0  0  0  0  0  0  0  0  0  0
   11.9890   -0.6590   22.0490 C   0  0  0  0  0  0  0  0  0  0  0  0
   10.6950   -1.0800   21.7040 C   0  0  0  0  0  0  0  0  0  0  0  0
    9.5770   -0.4620   22.2810 C   0  0  0  0  0  0  0  0  0  0  0  0
    8.2750   -0.7340   21.8290 N   0  0  0  0  0  0  0  0  0  0  0  0
    7.8370   -0.3570   20.5920 C   0  0  0  0  0  0  0  0  0  0  0  0
    8.5720   -0.0450   19.6760 O   0  0  0  0  0  0  0  0  0  0  0  0
    6.4750   -0.2850   20.5020 N   0  0  0  0  0  0  0  0  0  0  0  0
    5.7940    0.3700   19.4510 C   0  0  0  0  0  0  0  0  0  0  0  0
    4.8630    1.3700   19.7560 C   0  0  0  0  0  0  0  0  0  0  0  0
    4.3290    2.1100   18.6930 C   0  0  0  0  0  0  0  0  0  0  0  0
    4.7560    1.8480   17.3830 C   0  0  0  0  0  0  0  0  0  0  0  0
    5.6220    0.8560   17.0780 N   0  0  0  0  0  0  0  0  0  0  0  0
    6.1310    0.1420   18.1000 C   0  0  0  0  0  0  0  0  0  0  0  0
    9.7450    0.5470   23.2310 C   0  0  0  0  0  0  0  0  0  0  0  0
   12.4850    4.4790   22.9990 C   0  0  0  0  0  0  0  0  0  0  0  0
   13.0630    4.6630   21.7780 N   0  0  0  0  0  0  0  0  0  0  0  0
   13.1480    4.7170   23.9910 O   0  0  0  0  0  0  0  0  0  0  0  0
  1  2  1  0
  3  2  1  1
  3 22  1  0
  3  4  1  0
  4  5  1  0
  5  6  1  0
  6 21  2  0
  6  7  1  0
  7  8  2  0
  8  9  1  0
  9 10  2  0
 10 11  1  0
 10 21  1  0
 11 12  1  0
 12 13  2  0
 12 14  1  0
 14 15  1  0
 15 16  2  0
 15 20  1  0
 16 17  1  0
 17 18  2  0
 18 19  1  0
 19 20  2  0
 22 23  1  0
 22 24  2  0
M  END
>  <original SMILES>  (646) 
CCC(NCc1cccc(NC(=O)Nc2cccnc2)c1)C(N)=O

>  <AutoDock Predicted Affinity>  (646) 
-5.9737

>  <ref_pdb>  (646) 
x0434_0

>  <ref_mols>  (646) 
x0434_0

>  <creator>  (646) 
Will Poole

>  <energy minimised>  (646) 
True

$$$$
WPC1644_minimised.pdb
     RDKit          3D

 24 25  0  0  1  0  0  0  0  0999 V2000
    8.9680    4.7200   22.8530 C   0  0  0  0  0  0  0  0  0  0  0  0
   10.0310    5.7980   23.1470 C   0  0  0  0  0  0  0  0  0  0  0  0
   10.9930    5.4440   24.3080 C   0  0  2  0  0  0  0  0  0  0  0  0
   11.6990    6.6300   24.7060 O   0  0  0  0  0  0  0  0  0  0  0  0
   12.0380    4.3740   23.9420 C   0  0  0  0  0  0  0  0  0  0  0  0
   13.1900    4.6900   23.6940 O   0  0  0  0  0  0  0  0  0  0  0  0
   11.6360    3.0600   23.9980 N   0  0  0  0  0  0  0  0  0  0  0  0
   12.5010    1.9510   23.5780 C   0  0  0  0  0  0  0  0  0  0  0  0
   11.7990    0.7920   22.8970 C   0  0  0  0  0  0  0  0  0  0  0  0
   12.5990   -0.2230   22.3480 C   0  0  0  0  0  0  0  0  0  0  0  0
   12.0090   -1.3370   21.7380 C   0  0  0  0  0  0  0  0  0  0  0  0
   10.6130   -1.4310   21.6530 C   0  0  0  0  0  0  0  0  0  0  0  0
    9.8100   -0.4040   22.1670 C   0  0  0  0  0  0  0  0  0  0  0  0
    8.4220   -0.4110   21.9300 N   0  0  0  0  0  0  0  0  0  0  0  0
    7.8810   -0.1010   20.7140 C   0  0  0  0  0  0  0  0  0  0  0  0
    8.5500    0.0980   19.7210 O   0  0  0  0  0  0  0  0  0  0  0  0
    6.5180    0.0160   20.7090 N   0  0  0  0  0  0  0  0  0  0  0  0
    5.7790    0.5580   19.6280 C   0  0  0  0  0  0  0  0  0  0  0  0
    4.8370    1.5640   19.8790 C   0  0  0  0  0  0  0  0  0  0  0  0
    4.2540    2.1990   18.7740 C   0  0  0  0  0  0  0  0  0  0  0  0
    4.6440    1.8330   17.4770 C   0  0  0  0  0  0  0  0  0  0  0  0
    5.5060    0.8230   17.2260 N   0  0  0  0  0  0  0  0  0  0  0  0
    6.0640    0.2110   18.2880 C   0  0  0  0  0  0  0  0  0  0  0  0
   10.3970    0.6990   22.7990 C   0  0  0  0  0  0  0  0  0  0  0  0
  1  2  1  0
  2  3  1  0
  3  4  1  6
  3  5  1  0
  5  6  2  0
  5  7  1  0
  7  8  1  0
  8  9  1  0
  9 24  2  0
  9 10  1  0
 10 11  2  0
 11 12  1  0
 12 13  2  0
 13 14  1  0
 13 24  1  0
 14 15  1  0
 15 16  2  0
 15 17  1  0
 17 18  1  0
 18 19  2  0
 18 23  1  0
 19 20  1  0
 20 21  2  0
 21 22  1  0
 22 23  2  0
M  END
>  <original SMILES>  (647) 
CCC(O)C(=O)NCc1cccc(NC(=O)Nc2cccnc2)c1

>  <AutoDock Predicted Affinity>  (647) 
-6.108495

>  <ref_pdb>  (647) 
x0434_0

>  <ref_mols>  (647) 
x0434_0

>  <creator>  (647) 
Will Poole

>  <energy minimised>  (647) 
True

$$$$
WPC2260_minimised.pdb
     RDKit          3D

 23 24  0  0  1  0  0  0  0  0999 V2000
   10.9730    5.7870   24.2550 C   0  0  0  0  0  0  0  0  0  0  0  0
   10.8860    5.0390   22.9170 C   0  0  0  0  0  0  0  0  0  0  0  0
   12.0930    4.1210   22.6060 C   0  0  2  0  0  0  0  0  0  0  0  0
   12.2020    2.7730   23.8700 S   0  0  0  0  0  0  0  0  0  0  0  0
   11.6680    1.2920   23.0580 C   0  0  0  0  0  0  0  0  0  0  0  0
   12.6060    0.3230   22.6690 C   0  0  0  0  0  0  0  0  0  0  0  0
   12.1730   -0.8630   22.0520 C   0  0  0  0  0  0  0  0  0  0  0  0
   10.8010   -1.0770   21.8380 C   0  0  0  0  0  0  0  0  0  0  0  0
    9.8680   -0.1090   22.2380 C   0  0  0  0  0  0  0  0  0  0  0  0
    8.4980   -0.2780   21.9560 N   0  0  0  0  0  0  0  0  0  0  0  0
    7.9550   -0.0350   20.7280 C   0  0  0  0  0  0  0  0  0  0  0  0
    8.6190    0.1920   19.7390 O   0  0  0  0  0  0  0  0  0  0  0  0
    6.5880   -0.0090   20.7100 N   0  0  0  0  0  0  0  0  0  0  0  0
    5.8340    0.5110   19.6310 C   0  0  0  0  0  0  0  0  0  0  0  0
    4.8880    1.5110   19.8820 C   0  0  0  0  0  0  0  0  0  0  0  0
    4.2900    2.1330   18.7780 C   0  0  0  0  0  0  0  0  0  0  0  0
    4.6670    1.7550   17.4810 C   0  0  0  0  0  0  0  0  0  0  0  0
    5.5400    0.7530   17.2300 N   0  0  0  0  0  0  0  0  0  0  0  0
    6.1160    0.1580   18.2920 C   0  0  0  0  0  0  0  0  0  0  0  0
   10.3010    1.0770   22.8450 C   0  0  0  0  0  0  0  0  0  0  0  0
   13.4150    4.8890   22.4430 C   0  0  0  0  0  0  0  0  0  0  0  0
   13.5680    5.8650   21.7370 O   0  0  0  0  0  0  0  0  0  0  0  0
   14.4220    4.3990   23.1760 O   0  0  0  0  0  0  0  0  0  0  0  0
  1  2  1  0
  3  2  1  1
  3 21  1  0
  3  4  1  0
  4  5  1  0
  5 20  2  0
  5  6  1  0
  6  7  2  0
  7  8  1  0
  8  9  2  0
  9 10  1  0
  9 20  1  0
 10 11  1  0
 11 12  2  0
 11 13  1  0
 13 14  1  0
 14 15  2  0
 14 19  1  0
 15 16  1  0
 16 17  2  0
 17 18  1  0
 18 19  2  0
 21 22  2  0
 21 23  1  0
M  END
>  <original SMILES>  (648) 
CCC(Sc1cccc(NC(=O)Nc2cccnc2)c1)C(=O)O

>  <AutoDock Predicted Affinity>  (648) 
-5.59698

>  <ref_pdb>  (648) 
x0434_0

>  <ref_mols>  (648) 
x0434_0

>  <creator>  (648) 
Will Poole

>  <energy minimised>  (648) 
True

$$$$
WPC2065_minimised.pdb
     RDKit          3D

 24 25  0  0  1  0  0  0  0  0999 V2000
    9.9780    2.8430   24.0690 C   0  0  0  0  0  0  0  0  0  0  0  0
   11.5060    2.6490   24.0710 C   0  0  0  0  0  0  0  0  0  0  0  0
   12.1930    3.1790   22.7770 C   0  0  2  0  0  0  0  0  0  0  0  0
   13.3520    1.8940   22.1070 S   0  0  0  0  0  0  0  0  0  0  0  0
   12.3990    0.3890   22.0530 C   0  0  0  0  0  0  0  0  0  0  0  0
   13.0130   -0.8070   22.4380 C   0  0  0  0  0  0  0  0  0  0  0  0
   12.2470   -1.9730   22.5920 C   0  0  0  0  0  0  0  0  0  0  0  0
   10.8670   -1.9500   22.3330 C   0  0  0  0  0  0  0  0  0  0  0  0
   10.2610   -0.7640   21.8950 C   0  0  0  0  0  0  0  0  0  0  0  0
    8.8710   -0.7120   21.6640 N   0  0  0  0  0  0  0  0  0  0  0  0
    8.2870   -0.3440   20.4850 C   0  0  0  0  0  0  0  0  0  0  0  0
    8.8960   -0.1800   19.4490 O   0  0  0  0  0  0  0  0  0  0  0  0
    6.9360   -0.1430   20.5830 N   0  0  0  0  0  0  0  0  0  0  0  0
    6.1290    0.4270   19.5680 C   0  0  0  0  0  0  0  0  0  0  0  0
    5.2100    1.4280   19.9050 C   0  0  0  0  0  0  0  0  0  0  0  0
    4.5120    2.0520   18.8630 C   0  0  0  0  0  0  0  0  0  0  0  0
    4.7730    1.6850   17.5350 C   0  0  0  0  0  0  0  0  0  0  0  0
    5.6180    0.6840   17.2050 N   0  0  0  0  0  0  0  0  0  0  0  0
    6.2880    0.0820   18.2080 C   0  0  0  0  0  0  0  0  0  0  0  0
   11.0300    0.4010   21.7460 C   0  0  0  0  0  0  0  0  0  0  0  0
   12.9330    4.5470   22.9340 C   0  0  0  0  0  0  0  0  0  0  0  0
   12.0790    5.6110   23.6630 C   0  0  0  0  0  0  0  0  0  0  0  0
   13.4000    5.0750   21.5630 C   0  0  0  0  0  0  0  0  0  0  0  0
   14.1180    4.3620   23.6800 O   0  0  0  0  0  0  0  0  0  0  0  0
  1  2  1  0
  3  2  1  1
  3 21  1  0
  3  4  1  0
  4  5  1  0
  5 20  2  0
  5  6  1  0
  6  7  2  0
  7  8  1  0
  8  9  2  0
  9 10  1  0
  9 20  1  0
 10 11  1  0
 11 12  2  0
 11 13  1  0
 13 14  1  0
 14 15  2  0
 14 19  1  0
 15 16  1  0
 16 17  2  0
 17 18  1  0
 18 19  2  0
 21 22  1  0
 21 23  1  0
 21 24  1  0
M  END
>  <original SMILES>  (649) 
CCC(Sc1cccc(NC(=O)Nc2cccnc2)c1)C(C)(C)O

>  <AutoDock Predicted Affinity>  (649) 
-5.809723

>  <ref_pdb>  (649) 
x0434_0

>  <ref_mols>  (649) 
x0434_0

>  <creator>  (649) 
Will Poole

>  <energy minimised>  (649) 
True

$$$$
WPC2619_minimised.pdb
     RDKit          3D

 24 25  0  0  0  0  0  0  0  0999 V2000
   14.1380    4.4060   20.1940 C   0  0  0  0  0  0  0  0  0  0  0  0
   13.6690    3.8190   21.5370 C   0  0  0  0  0  0  0  0  0  0  0  0
   13.5170    4.8720   22.6150 C   0  0  0  0  0  0  0  0  0  0  0  0
   12.8910    4.6750   23.7250 N   0  0  0  0  0  0  0  0  0  0  0  0
   12.1650    3.5300   23.9630 N   0  0  0  0  0  0  0  0  0  0  0  0
   10.8820    3.4990   24.4860 C   0  0  0  0  0  0  0  0  0  0  0  0
   10.1890    4.4890   24.6450 O   0  0  0  0  0  0  0  0  0  0  0  0
   10.4490    2.1140   24.9620 C   0  0  0  0  0  0  0  0  0  0  0  0
   10.3020    1.0640   23.8800 C   0  0  0  0  0  0  0  0  0  0  0  0
   11.3750    0.2220   23.5340 C   0  0  0  0  0  0  0  0  0  0  0  0
   11.1830   -0.8170   22.6060 C   0  0  0  0  0  0  0  0  0  0  0  0
    9.9240   -1.0050   22.0140 C   0  0  0  0  0  0  0  0  0  0  0  0
    8.8570   -0.1700   22.3730 C   0  0  0  0  0  0  0  0  0  0  0  0
    7.5880   -0.3100   21.7910 N   0  0  0  0  0  0  0  0  0  0  0  0
    7.3230   -0.0480   20.4830 C   0  0  0  0  0  0  0  0  0  0  0  0
    8.1700    0.0350   19.6160 O   0  0  0  0  0  0  0  0  0  0  0  0
    5.9930    0.1790   20.2710 N   0  0  0  0  0  0  0  0  0  0  0  0
    5.4460    0.8170   19.1370 C   0  0  0  0  0  0  0  0  0  0  0  0
    4.4680    1.8010   19.3250 C   0  0  0  0  0  0  0  0  0  0  0  0
    4.0360    2.5100   18.1980 C   0  0  0  0  0  0  0  0  0  0  0  0
    4.6080    2.2380   16.9490 C   0  0  0  0  0  0  0  0  0  0  0  0
    5.5210    1.2590   16.7530 N   0  0  0  0  0  0  0  0  0  0  0  0
    5.9300    0.5720   17.8360 C   0  0  0  0  0  0  0  0  0  0  0  0
    9.0460    0.8620   23.2970 C   0  0  0  0  0  0  0  0  0  0  0  0
  1  2  1  0
  2  3  1  0
  3  4  2  0
  4  5  1  0
  5  6  1  0
  6  7  2  0
  6  8  1  0
  8  9  1  0
  9 24  2  0
  9 10  1  0
 10 11  2  0
 11 12  1  0
 12 13  2  0
 13 14  1  0
 13 24  1  0
 14 15  1  0
 15 16  2  0
 15 17  1  0
 17 18  1  0
 18 19  2  0
 18 23  1  0
 19 20  1  0
 20 21  2  0
 21 22  1  0
 22 23  2  0
M  END
>  <original SMILES>  (650) 
CCC=NNC(=O)Cc1cccc(NC(=O)Nc2cccnc2)c1

>  <AutoDock Predicted Affinity>  (650) 
-6.57724

>  <ref_pdb>  (650) 
x0434_0

>  <ref_mols>  (650) 
x0434_0

>  <creator>  (650) 
Will Poole

>  <energy minimised>  (650) 
True

$$$$
WPC2623_minimised.pdb
     RDKit          3D

 24 25  0  0  0  0  0  0  0  0999 V2000
   13.7080    5.5620   21.6680 C   0  0  0  0  0  0  0  0  0  0  0  0
   14.0780    4.1920   21.0830 C   0  0  0  0  0  0  0  0  0  0  0  0
   13.7190    3.0570   22.0650 C   0  0  0  0  0  0  0  0  0  0  0  0
   12.2100    2.8920   22.2350 C   0  0  0  0  0  0  0  0  0  0  0  0
   11.5060    2.3840   21.3850 O   0  0  0  0  0  0  0  0  0  0  0  0
   11.7320    3.3370   23.4460 N   0  0  0  0  0  0  0  0  0  0  0  0
   10.3510    3.1430   23.8980 C   0  0  0  0  0  0  0  0  0  0  0  0
   10.1990    1.8330   24.6990 C   0  0  0  0  0  0  0  0  0  0  0  0
   10.1260    0.6190   23.7970 C   0  0  0  0  0  0  0  0  0  0  0  0
   11.2750   -0.1070   23.4360 C   0  0  0  0  0  0  0  0  0  0  0  0
   11.1800   -1.1730   22.5230 C   0  0  0  0  0  0  0  0  0  0  0  0
    9.9360   -1.5050   21.9630 C   0  0  0  0  0  0  0  0  0  0  0  0
    8.7930   -0.7830   22.3350 C   0  0  0  0  0  0  0  0  0  0  0  0
    7.5510   -0.9770   21.7150 N   0  0  0  0  0  0  0  0  0  0  0  0
    7.3210   -0.6350   20.4160 C   0  0  0  0  0  0  0  0  0  0  0  0
    8.1600   -0.6370   19.5370 O   0  0  0  0  0  0  0  0  0  0  0  0
    6.0310   -0.2220   20.2400 N   0  0  0  0  0  0  0  0  0  0  0  0
    5.5350    0.5290   19.1520 C   0  0  0  0  0  0  0  0  0  0  0  0
    4.5940    1.5360   19.4040 C   0  0  0  0  0  0  0  0  0  0  0  0
    4.1820    2.3270   18.3260 C   0  0  0  0  0  0  0  0  0  0  0  0
    4.7380    2.1140   17.0580 C   0  0  0  0  0  0  0  0  0  0  0  0
    5.6200    1.1230   16.8000 N   0  0  0  0  0  0  0  0  0  0  0  0
    6.0140    0.3580   17.8360 C   0  0  0  0  0  0  0  0  0  0  0  0
    8.8860    0.2640   23.2540 C   0  0  0  0  0  0  0  0  0  0  0  0
  1  2  1  0
  2  3  1  0
  3  4  1  0
  4  5  2  0
  4  6  1  0
  6  7  1  0
  7  8  1  0
  8  9  1  0
  9 24  2  0
  9 10  1  0
 10 11  2  0
 11 12  1  0
 12 13  2  0
 13 14  1  0
 13 24  1  0
 14 15  1  0
 15 16  2  0
 15 17  1  0
 17 18  1  0
 18 19  2  0
 18 23  1  0
 19 20  1  0
 20 21  2  0
 21 22  1  0
 22 23  2  0
M  END
>  <original SMILES>  (651) 
CCCC(=O)NCCc1cccc(NC(=O)Nc2cccnc2)c1

>  <AutoDock Predicted Affinity>  (651) 
-6.33814

>  <ref_pdb>  (651) 
x0434_0

>  <ref_mols>  (651) 
x0434_0

>  <creator>  (651) 
Will Poole

>  <energy minimised>  (651) 
True

$$$$
WPC1493_minimised.pdb
     RDKit          3D

 23 24  0  0  0  0  0  0  0  0999 V2000
    8.0900    4.1050   22.3680 C   0  0  0  0  0  0  0  0  0  0  0  0
    8.6400    5.5480   22.3180 C   0  0  0  0  0  0  0  0  0  0  0  0
   10.0820    5.7490   22.8450 C   0  0  0  0  0  0  0  0  0  0  0  0
   10.6620    4.6150   23.6740 C   0  0  0  0  0  0  0  0  0  0  0  0
   10.5620    4.5890   24.8840 O   0  0  0  0  0  0  0  0  0  0  0  0
   11.3430    3.6610   22.9560 N   0  0  0  0  0  0  0  0  0  0  0  0
   12.0660    2.5390   23.5650 C   0  0  0  0  0  0  0  0  0  0  0  0
   11.6820    1.2000   22.9660 C   0  0  0  0  0  0  0  0  0  0  0  0
   12.6630    0.2910   22.5310 C   0  0  0  0  0  0  0  0  0  0  0  0
   12.2840   -0.9300   21.9470 C   0  0  0  0  0  0  0  0  0  0  0  0
   10.9230   -1.2390   21.7920 C   0  0  0  0  0  0  0  0  0  0  0  0
    9.9460   -0.3330   22.2280 C   0  0  0  0  0  0  0  0  0  0  0  0
    8.5830   -0.5420   21.9440 N   0  0  0  0  0  0  0  0  0  0  0  0
    8.0380   -0.2460   20.7270 C   0  0  0  0  0  0  0  0  0  0  0  0
    8.7020   -0.0120   19.7360 O   0  0  0  0  0  0  0  0  0  0  0  0
    6.6730   -0.1670   20.7220 N   0  0  0  0  0  0  0  0  0  0  0  0
    5.9290    0.4090   19.6640 C   0  0  0  0  0  0  0  0  0  0  0  0
    5.0110    1.4280   19.9500 C   0  0  0  0  0  0  0  0  0  0  0  0
    4.4190    2.0930   18.8680 C   0  0  0  0  0  0  0  0  0  0  0  0
    4.7760    1.7430   17.5570 C   0  0  0  0  0  0  0  0  0  0  0  0
    5.6230    0.7280   17.2730 N   0  0  0  0  0  0  0  0  0  0  0  0
    6.1900    0.0870   18.3140 C   0  0  0  0  0  0  0  0  0  0  0  0
   10.3250    0.8710   22.8290 C   0  0  0  0  0  0  0  0  0  0  0  0
  1  2  1  0
  2  3  1  0
  3  4  1  0
  4  5  2  0
  4  6  1  0
  6  7  1  0
  7  8  1  0
  8 23  2  0
  8  9  1  0
  9 10  2  0
 10 11  1  0
 11 12  2  0
 12 13  1  0
 12 23  1  0
 13 14  1  0
 14 15  2  0
 14 16  1  0
 16 17  1  0
 17 18  2  0
 17 22  1  0
 18 19  1  0
 19 20  2  0
 20 21  1  0
 21 22  2  0
M  END
>  <original SMILES>  (652) 
CCCC(=O)NCc1cccc(NC(=O)Nc2cccnc2)c1

>  <AutoDock Predicted Affinity>  (652) 
-6.01495

>  <ref_pdb>  (652) 
x0434_0

>  <ref_mols>  (652) 
x0434_0

>  <creator>  (652) 
Will Poole

>  <energy minimised>  (652) 
True

$$$$
WPC2401_minimised.pdb
     RDKit          3D

 24 25  0  0  0  0  0  0  0  0999 V2000
    9.2960    6.1630   22.9250 C   0  0  0  0  0  0  0  0  0  0  0  0
    8.5020    5.0770   22.1760 C   0  0  0  0  0  0  0  0  0  0  0  0
    8.8280    3.6340   22.6400 C   0  0  0  0  0  0  0  0  0  0  0  0
   10.1310    3.5060   23.4250 C   0  0  0  0  0  0  0  0  0  0  0  0
   10.2090    3.6660   24.6320 O   0  0  0  0  0  0  0  0  0  0  0  0
   11.1760    3.1760   22.6280 O   0  0  0  0  0  0  0  0  0  0  0  0
   12.4660    2.9420   23.2090 C   0  0  0  0  0  0  0  0  0  0  0  0
   12.4650    1.5890   23.9590 C   0  0  0  0  0  0  0  0  0  0  0  0
   11.8930    0.4480   23.1450 C   0  0  0  0  0  0  0  0  0  0  0  0
   12.7350   -0.3630   22.3670 C   0  0  0  0  0  0  0  0  0  0  0  0
   12.1890   -1.3940   21.5920 C   0  0  0  0  0  0  0  0  0  0  0  0
   10.7990   -1.5860   21.5640 C   0  0  0  0  0  0  0  0  0  0  0  0
    9.9570   -0.7500   22.3060 C   0  0  0  0  0  0  0  0  0  0  0  0
    8.5700   -0.7530   22.0560 N   0  0  0  0  0  0  0  0  0  0  0  0
    8.0420   -0.2210   20.9100 C   0  0  0  0  0  0  0  0  0  0  0  0
    8.7210    0.2360   20.0130 O   0  0  0  0  0  0  0  0  0  0  0  0
    6.6750   -0.2140   20.8470 N   0  0  0  0  0  0  0  0  0  0  0  0
    5.9490    0.3650   19.7760 C   0  0  0  0  0  0  0  0  0  0  0  0
    4.9970    1.3580   20.0380 C   0  0  0  0  0  0  0  0  0  0  0  0
    4.4300    2.0210   18.9400 C   0  0  0  0  0  0  0  0  0  0  0  0
    4.8310    1.6810   17.6380 C   0  0  0  0  0  0  0  0  0  0  0  0
    5.7090    0.6870   17.3750 N   0  0  0  0  0  0  0  0  0  0  0  0
    6.2660    0.0620   18.4330 C   0  0  0  0  0  0  0  0  0  0  0  0
   10.5060    0.2310   23.1330 C   0  0  0  0  0  0  0  0  0  0  0  0
  1  2  1  0
  2  3  1  0
  3  4  1  0
  4  5  2  0
  4  6  1  0
  6  7  1  0
  7  8  1  0
  8  9  1  0
  9 24  2  0
  9 10  1  0
 10 11  2  0
 11 12  1  0
 12 13  2  0
 13 14  1  0
 13 24  1  0
 14 15  1  0
 15 16  2  0
 15 17  1  0
 17 18  1  0
 18 19  2  0
 18 23  1  0
 19 20  1  0
 20 21  2  0
 21 22  1  0
 22 23  2  0
M  END
>  <original SMILES>  (653) 
CCCC(=O)OCCc1cccc(NC(=O)Nc2cccnc2)c1

>  <AutoDock Predicted Affinity>  (653) 
-5.470705

>  <ref_pdb>  (653) 
x0434_0

>  <ref_mols>  (653) 
x0434_0

>  <creator>  (653) 
Will Poole

>  <energy minimised>  (653) 
True

$$$$
WPC1632_minimised.pdb
     RDKit          3D

 24 25  0  0  0  0  0  0  0  0999 V2000
   12.9610    8.4240   25.6570 C   0  0  0  0  0  0  0  0  0  0  0  0
   12.7350    6.9160   25.8450 C   0  0  0  0  0  0  0  0  0  0  0  0
   12.5720    6.1120   24.5430 C   0  0  0  0  0  0  0  0  0  0  0  0
   11.0810    5.9130   24.1930 C   0  0  0  0  0  0  0  0  0  0  0  0
   10.8650    4.9960   22.9800 C   0  0  0  0  0  0  0  0  0  0  0  0
   11.4160    3.5670   23.1530 C   0  0  0  0  0  0  0  0  0  0  0  0
   10.9090    2.9530   24.3890 N   0  0  0  0  0  0  0  0  0  0  0  0
   11.4570    1.6180   24.6630 C   0  0  0  0  0  0  0  0  0  0  0  0
   11.0980    0.6080   23.5970 C   0  0  0  0  0  0  0  0  0  0  0  0
   12.1050   -0.0390   22.8590 C   0  0  0  0  0  0  0  0  0  0  0  0
   11.7620   -1.0020   21.8980 C   0  0  0  0  0  0  0  0  0  0  0  0
   10.4100   -1.2760   21.6430 C   0  0  0  0  0  0  0  0  0  0  0  0
    9.4080   -0.5760   22.3250 C   0  0  0  0  0  0  0  0  0  0  0  0
    8.0670   -0.6700   21.9120 N   0  0  0  0  0  0  0  0  0  0  0  0
    7.6490   -0.2690   20.6740 C   0  0  0  0  0  0  0  0  0  0  0  0
    8.3960   -0.0000   19.7530 O   0  0  0  0  0  0  0  0  0  0  0  0
    6.2930   -0.1350   20.5780 N   0  0  0  0  0  0  0  0  0  0  0  0
    5.6390    0.4960   19.4950 C   0  0  0  0  0  0  0  0  0  0  0  0
    4.7140    1.5140   19.7540 C   0  0  0  0  0  0  0  0  0  0  0  0
    4.2020    2.2190   18.6570 C   0  0  0  0  0  0  0  0  0  0  0  0
    4.6370    1.9000   17.3620 C   0  0  0  0  0  0  0  0  0  0  0  0
    5.4990    0.8910   17.1040 N   0  0  0  0  0  0  0  0  0  0  0  0
    5.9920    0.2140   18.1580 C   0  0  0  0  0  0  0  0  0  0  0  0
    9.7490    0.3390   23.3250 C   0  0  0  0  0  0  0  0  0  0  0  0
  1  2  1  0
  2  3  1  0
  3  4  1  0
  4  5  1  0
  5  6  1  0
  6  7  1  0
  7  8  1  0
  8  9  1  0
  9 24  2  0
  9 10  1  0
 10 11  2  0
 11 12  1  0
 12 13  2  0
 13 14  1  0
 13 24  1  0
 14 15  1  0
 15 16  2  0
 15 17  1  0
 17 18  1  0
 18 19  2  0
 18 23  1  0
 19 20  1  0
 20 21  2  0
 21 22  1  0
 22 23  2  0
M  END
>  <original SMILES>  (654) 
CCCCCCNCc1cccc(NC(=O)Nc2cccnc2)c1

>  <AutoDock Predicted Affinity>  (654) 
-4.95939

>  <ref_pdb>  (654) 
x0434_0

>  <ref_mols>  (654) 
x0434_0

>  <creator>  (654) 
Will Poole

>  <energy minimised>  (654) 
True

$$$$
WPC2474_minimised.pdb
     RDKit          3D

 23 24  0  0  0  0  0  0  0  0999 V2000
   12.6800    7.4030   25.7380 C   0  0  0  0  0  0  0  0  0  0  0  0
   11.9750    6.3870   24.8150 C   0  0  0  0  0  0  0  0  0  0  0  0
   12.9550    5.7760   23.7920 C   0  0  0  0  0  0  0  0  0  0  0  0
   12.2690    4.8710   22.7500 C   0  0  0  0  0  0  0  0  0  0  0  0
   12.2860    3.3840   23.1360 C   0  0  0  0  0  0  0  0  0  0  0  0
   11.4440    3.0890   24.3020 N   0  0  0  0  0  0  0  0  0  0  0  0
   11.5380    1.6860   24.7360 C   0  0  0  0  0  0  0  0  0  0  0  0
   11.1550    0.6970   23.6550 C   0  0  0  0  0  0  0  0  0  0  0  0
   12.1550    0.0180   22.9330 C   0  0  0  0  0  0  0  0  0  0  0  0
   11.8030   -0.9230   21.9540 C   0  0  0  0  0  0  0  0  0  0  0  0
   10.4490   -1.1530   21.6730 C   0  0  0  0  0  0  0  0  0  0  0  0
    9.4540   -0.4320   22.3480 C   0  0  0  0  0  0  0  0  0  0  0  0
    8.1090   -0.5200   21.9430 N   0  0  0  0  0  0  0  0  0  0  0  0
    7.6860   -0.2170   20.6790 C   0  0  0  0  0  0  0  0  0  0  0  0
    8.4310   -0.0520   19.7330 O   0  0  0  0  0  0  0  0  0  0  0  0
    6.3310   -0.0630   20.5890 N   0  0  0  0  0  0  0  0  0  0  0  0
    5.6660    0.5330   19.4930 C   0  0  0  0  0  0  0  0  0  0  0  0
    4.7220    1.5380   19.7380 C   0  0  0  0  0  0  0  0  0  0  0  0
    4.1920    2.2150   18.6330 C   0  0  0  0  0  0  0  0  0  0  0  0
    4.6310    1.8860   17.3430 C   0  0  0  0  0  0  0  0  0  0  0  0
    5.5050    0.8840   17.0950 N   0  0  0  0  0  0  0  0  0  0  0  0
    6.0150    0.2330   18.1590 C   0  0  0  0  0  0  0  0  0  0  0  0
    9.8030    0.4740   23.3550 C   0  0  0  0  0  0  0  0  0  0  0  0
  1  2  1  0
  2  3  1  0
  3  4  1  0
  4  5  1  0
  5  6  1  0
  6  7  1  0
  7  8  1  0
  8 23  2  0
  8  9  1  0
  9 10  2  0
 10 11  1  0
 11 12  2  0
 12 13  1  0
 12 23  1  0
 13 14  1  0
 14 15  2  0
 14 16  1  0
 16 17  1  0
 17 18  2  0
 17 22  1  0
 18 19  1  0
 19 20  2  0
 20 21  1  0
 21 22  2  0
M  END
>  <original SMILES>  (655) 
CCCCCNCc1cccc(NC(=O)Nc2cccnc2)c1

>  <AutoDock Predicted Affinity>  (655) 
-5.35087

>  <ref_pdb>  (655) 
x0434_0

>  <ref_mols>  (655) 
x0434_0

>  <creator>  (655) 
Will Poole

>  <energy minimised>  (655) 
True

$$$$
WPC1780_minimised.pdb
     RDKit          3D

 21 22  0  0  0  0  0  0  0  0999 V2000
   13.7760    5.6040   21.9990 C   0  0  0  0  0  0  0  0  0  0  0  0
   12.4230    4.8970   22.1830 C   0  0  0  0  0  0  0  0  0  0  0  0
   12.3560    4.0770   23.4770 C   0  0  0  0  0  0  0  0  0  0  0  0
   10.9090    3.6280   23.7860 C   0  0  0  0  0  0  0  0  0  0  0  0
   10.8620    2.3050   24.5740 C   0  0  0  0  0  0  0  0  0  0  0  0
   10.8390    1.1010   23.6550 C   0  0  0  0  0  0  0  0  0  0  0  0
   12.0220    0.5000   23.1860 C   0  0  0  0  0  0  0  0  0  0  0  0
   11.9550   -0.5790   22.2870 C   0  0  0  0  0  0  0  0  0  0  0  0
   10.7050   -1.0590   21.8620 C   0  0  0  0  0  0  0  0  0  0  0  0
    9.5300   -0.4560   22.3300 C   0  0  0  0  0  0  0  0  0  0  0  0
    8.2670   -0.8160   21.8290 N   0  0  0  0  0  0  0  0  0  0  0  0
    7.8130   -0.3940   20.6140 C   0  0  0  0  0  0  0  0  0  0  0  0
    8.5260    0.0310   19.7270 O   0  0  0  0  0  0  0  0  0  0  0  0
    6.4500   -0.4130   20.5120 N   0  0  0  0  0  0  0  0  0  0  0  0
    5.7440    0.2490   19.4820 C   0  0  0  0  0  0  0  0  0  0  0  0
    4.8140    1.2430   19.8110 C   0  0  0  0  0  0  0  0  0  0  0  0
    4.2600    1.9880   18.7610 C   0  0  0  0  0  0  0  0  0  0  0  0
    4.6600    1.7290   17.4420 C   0  0  0  0  0  0  0  0  0  0  0  0
    5.5300    0.7470   17.1160 N   0  0  0  0  0  0  0  0  0  0  0  0
    6.0670    0.0360   18.1270 C   0  0  0  0  0  0  0  0  0  0  0  0
    9.5980    0.6140   23.2250 C   0  0  0  0  0  0  0  0  0  0  0  0
  1  2  1  0
  2  3  1  0
  3  4  1  0
  4  5  1  0
  5  6  1  0
  6 21  2  0
  6  7  1  0
  7  8  2  0
  8  9  1  0
  9 10  2  0
 10 11  1  0
 10 21  1  0
 11 12  1  0
 12 13  2  0
 12 14  1  0
 14 15  1  0
 15 16  2  0
 15 20  1  0
 16 17  1  0
 17 18  2  0
 18 19  1  0
 19 20  2  0
M  END
>  <original SMILES>  (656) 
CCCCCc1cccc(NC(=O)Nc2cccnc2)c1

>  <AutoDock Predicted Affinity>  (656) 
-5.761015

>  <ref_pdb>  (656) 
x0434_0

>  <ref_mols>  (656) 
x0434_0

>  <creator>  (656) 
Will Poole

>  <energy minimised>  (656) 
True

$$$$
WPC1468_minimised.pdb
     RDKit          3D

 24 25  0  0  0  0  0  0  0  0999 V2000
    8.0580    3.3610   22.1260 C   0  0  0  0  0  0  0  0  0  0  0  0
    8.1920    4.8950   22.0380 C   0  0  0  0  0  0  0  0  0  0  0  0
    9.1450    5.5330   23.0820 C   0  0  0  0  0  0  0  0  0  0  0  0
   10.6540    5.2700   22.8990 C   0  0  0  0  0  0  0  0  0  0  0  0
   11.0070    3.8620   23.0840 N   0  0  0  0  0  0  0  0  0  0  0  0
   12.2480    3.4400   23.4840 C   0  0  0  0  0  0  0  0  0  0  0  0
   13.1690    4.2230   23.6160 O   0  0  0  0  0  0  0  0  0  0  0  0
   12.3420    1.9880   23.9540 C   0  0  0  0  0  0  0  0  0  0  0  0
   11.7450    0.9120   23.0690 C   0  0  0  0  0  0  0  0  0  0  0  0
   12.5910    0.0330   22.3720 C   0  0  0  0  0  0  0  0  0  0  0  0
   12.0500   -1.0310   21.6370 C   0  0  0  0  0  0  0  0  0  0  0  0
   10.6590   -1.1970   21.5740 C   0  0  0  0  0  0  0  0  0  0  0  0
    9.8120   -0.3030   22.2420 C   0  0  0  0  0  0  0  0  0  0  0  0
    8.4260   -0.3410   22.0000 N   0  0  0  0  0  0  0  0  0  0  0  0
    7.8900   -0.0080   20.7870 C   0  0  0  0  0  0  0  0  0  0  0  0
    8.5640    0.2470   19.8090 O   0  0  0  0  0  0  0  0  0  0  0  0
    6.5240    0.0620   20.7590 N   0  0  0  0  0  0  0  0  0  0  0  0
    5.7920    0.5900   19.6680 C   0  0  0  0  0  0  0  0  0  0  0  0
    4.8510    1.6000   19.8990 C   0  0  0  0  0  0  0  0  0  0  0  0
    4.2780    2.2220   18.7820 C   0  0  0  0  0  0  0  0  0  0  0  0
    4.6720    1.8350   17.4920 C   0  0  0  0  0  0  0  0  0  0  0  0
    5.5380    0.8230   17.2600 N   0  0  0  0  0  0  0  0  0  0  0  0
    6.0910    0.2270   18.3350 C   0  0  0  0  0  0  0  0  0  0  0  0
   10.3540    0.7220   23.0260 C   0  0  0  0  0  0  0  0  0  0  0  0
  1  2  1  0
  2  3  1  0
  3  4  1  0
  4  5  1  0
  5  6  1  0
  6  7  2  0
  6  8  1  0
  8  9  1  0
  9 24  2  0
  9 10  1  0
 10 11  2  0
 11 12  1  0
 12 13  2  0
 13 14  1  0
 13 24  1  0
 14 15  1  0
 15 16  2  0
 15 17  1  0
 17 18  1  0
 18 19  2  0
 18 23  1  0
 19 20  1  0
 20 21  2  0
 21 22  1  0
 22 23  2  0
M  END
>  <original SMILES>  (657) 
CCCCNC(=O)Cc1cccc(NC(=O)Nc2cccnc2)c1

>  <AutoDock Predicted Affinity>  (657) 
-6.06626

>  <ref_pdb>  (657) 
x0434_0

>  <ref_mols>  (657) 
x0434_0

>  <creator>  (657) 
Will Poole

>  <energy minimised>  (657) 
True

$$$$
WPC1743_minimised.pdb
     RDKit          3D

 24 25  0  0  0  0  0  0  0  0999 V2000
   14.0760    5.4930   20.6280 C   0  0  0  0  0  0  0  0  0  0  0  0
   14.3230    5.7090   22.1200 C   0  0  0  0  0  0  0  0  0  0  0  0
   13.8160    4.5640   23.0070 C   0  0  0  0  0  0  0  0  0  0  0  0
   12.2970    4.6150   23.2160 C   0  0  0  0  0  0  0  0  0  0  0  0
   11.9350    3.4350   23.9390 O   0  0  0  0  0  0  0  0  0  0  0  0
   10.6310    3.3030   24.3000 C   0  0  0  0  0  0  0  0  0  0  0  0
    9.8150    4.2080   24.2690 O   0  0  0  0  0  0  0  0  0  0  0  0
   10.3720    1.9290   24.8970 C   0  0  0  0  0  0  0  0  0  0  0  0
   10.3550    0.8470   23.8360 C   0  0  0  0  0  0  0  0  0  0  0  0
   11.5520    0.3190   23.3190 C   0  0  0  0  0  0  0  0  0  0  0  0
   11.5150   -0.6650   22.3170 C   0  0  0  0  0  0  0  0  0  0  0  0
   10.2770   -1.1090   21.8230 C   0  0  0  0  0  0  0  0  0  0  0  0
    9.0880   -0.5650   22.3290 C   0  0  0  0  0  0  0  0  0  0  0  0
    7.8400   -0.8530   21.7540 N   0  0  0  0  0  0  0  0  0  0  0  0
    7.5270   -0.5000   20.4750 C   0  0  0  0  0  0  0  0  0  0  0  0
    8.3420   -0.3050   19.5930 O   0  0  0  0  0  0  0  0  0  0  0  0
    6.1860   -0.2990   20.3180 N   0  0  0  0  0  0  0  0  0  0  0  0
    5.6040    0.4230   19.2540 C   0  0  0  0  0  0  0  0  0  0  0  0
    4.6690    1.4250   19.5430 C   0  0  0  0  0  0  0  0  0  0  0  0
    4.2080    2.2100   18.4790 C   0  0  0  0  0  0  0  0  0  0  0  0
    4.7100    1.9910   17.1890 C   0  0  0  0  0  0  0  0  0  0  0  0
    5.5870    1.0040   16.8990 N   0  0  0  0  0  0  0  0  0  0  0  0
    6.0260    0.2450   17.9210 C   0  0  0  0  0  0  0  0  0  0  0  0
    9.1260    0.3990   23.3400 C   0  0  0  0  0  0  0  0  0  0  0  0
  1  2  1  0
  2  3  1  0
  3  4  1  0
  4  5  1  0
  5  6  1  0
  6  7  2  0
  6  8  1  0
  8  9  1  0
  9 24  2  0
  9 10  1  0
 10 11  2  0
 11 12  1  0
 12 13  2  0
 13 14  1  0
 13 24  1  0
 14 15  1  0
 15 16  2  0
 15 17  1  0
 17 18  1  0
 18 19  2  0
 18 23  1  0
 19 20  1  0
 20 21  2  0
 21 22  1  0
 22 23  2  0
M  END
>  <original SMILES>  (658) 
CCCCOC(=O)Cc1cccc(NC(=O)Nc2cccnc2)c1

>  <AutoDock Predicted Affinity>  (658) 
-5.41683

>  <ref_pdb>  (658) 
x0434_0

>  <ref_mols>  (658) 
x0434_0

>  <creator>  (658) 
Will Poole

>  <energy minimised>  (658) 
True

$$$$
WPC2440_minimised.pdb
     RDKit          3D

 21 22  0  0  0  0  0  0  0  0999 V2000
   13.1190    5.3020   22.8180 C   0  0  0  0  0  0  0  0  0  0  0  0
   11.7980    5.6790   23.5320 C   0  0  0  0  0  0  0  0  0  0  0  0
   11.2590    4.5690   24.4410 C   0  0  0  0  0  0  0  0  0  0  0  0
   11.0290    3.2500   23.6900 C   0  0  0  0  0  0  0  0  0  0  0  0
   10.6090    1.9330   24.8860 S   0  0  0  0  0  0  0  0  0  0  0  0
   10.5010    0.5740   23.7670 C   0  0  0  0  0  0  0  0  0  0  0  0
   11.6550   -0.0130   23.2260 C   0  0  0  0  0  0  0  0  0  0  0  0
   11.5350   -1.0280   22.2610 C   0  0  0  0  0  0  0  0  0  0  0  0
   10.2610   -1.4170   21.8180 C   0  0  0  0  0  0  0  0  0  0  0  0
    9.1170   -0.7940   22.3370 C   0  0  0  0  0  0  0  0  0  0  0  0
    7.8530   -0.9940   21.7620 N   0  0  0  0  0  0  0  0  0  0  0  0
    7.5390   -0.5080   20.5270 C   0  0  0  0  0  0  0  0  0  0  0  0
    8.3530   -0.1890   19.6810 O   0  0  0  0  0  0  0  0  0  0  0  0
    6.1940   -0.3320   20.3650 N   0  0  0  0  0  0  0  0  0  0  0  0
    5.6090    0.4030   19.3110 C   0  0  0  0  0  0  0  0  0  0  0  0
    4.6730    1.4020   19.6040 C   0  0  0  0  0  0  0  0  0  0  0  0
    4.2120    2.1910   18.5410 C   0  0  0  0  0  0  0  0  0  0  0  0
    4.7130    1.9760   17.2490 C   0  0  0  0  0  0  0  0  0  0  0  0
    5.5950    0.9930   16.9580 N   0  0  0  0  0  0  0  0  0  0  0  0
    6.0340    0.2320   17.9780 C   0  0  0  0  0  0  0  0  0  0  0  0
    9.2360    0.1830   23.3270 C   0  0  0  0  0  0  0  0  0  0  0  0
  1  2  1  0
  2  3  1  0
  3  4  1  0
  4  5  1  0
  5  6  1  0
  6 21  2  0
  6  7  1  0
  7  8  2  0
  8  9  1  0
  9 10  2  0
 10 11  1  0
 10 21  1  0
 11 12  1  0
 12 13  2  0
 12 14  1  0
 14 15  1  0
 15 16  2  0
 15 20  1  0
 16 17  1  0
 17 18  2  0
 18 19  1  0
 19 20  2  0
M  END
>  <original SMILES>  (659) 
CCCCSc1cccc(NC(=O)Nc2cccnc2)c1

>  <AutoDock Predicted Affinity>  (659) 
-5.194255

>  <ref_pdb>  (659) 
x0434_0

>  <ref_mols>  (659) 
x0434_0

>  <creator>  (659) 
Will Poole

>  <energy minimised>  (659) 
True

$$$$
WPC1224_minimised.pdb
     RDKit          3D

 23 24  0  0  0  0  0  0  0  0999 V2000
    8.3080    4.5930   22.1470 C   0  0  0  0  0  0  0  0  0  0  0  0
    9.0990    5.3920   23.2070 C   0  0  0  0  0  0  0  0  0  0  0  0
   10.6100    5.5190   22.9280 C   0  0  0  0  0  0  0  0  0  0  0  0
   11.3560    4.1770   22.9900 C   0  0  0  0  0  0  0  0  0  0  0  0
   13.1340    4.3410   22.5540 S   0  0  1  0  0  0  0  0  0  0  0  0
   13.5330    5.0240   24.0550 O   0  0  0  0  0  0  0  0  0  0  0  0
   13.6930    2.6500   23.0900 C   0  0  0  0  0  0  0  0  0  0  0  0
   13.0090    1.4380   22.4590 C   0  0  0  0  0  0  0  0  0  0  0  0
   13.7550    0.6130   21.6010 C   0  0  0  0  0  0  0  0  0  0  0  0
   13.1830   -0.5390   21.0440 C   0  0  0  0  0  0  0  0  0  0  0  0
   11.8350   -0.8310   21.3000 C   0  0  0  0  0  0  0  0  0  0  0  0
   11.0670    0.0020   22.1200 C   0  0  0  0  0  0  0  0  0  0  0  0
    9.6580   -0.1350   22.1610 N   0  0  0  0  0  0  0  0  0  0  0  0
    8.8650    0.0540   21.0510 C   0  0  0  0  0  0  0  0  0  0  0  0
    9.3130    0.2220   19.9400 O   0  0  0  0  0  0  0  0  0  0  0  0
    7.5030    0.0700   21.2310 N   0  0  0  0  0  0  0  0  0  0  0  0
    6.5980    0.4340   20.1910 C   0  0  0  0  0  0  0  0  0  0  0  0
    5.6620    1.4500   20.4180 C   0  0  0  0  0  0  0  0  0  0  0  0
    4.9140    1.9130   19.3240 C   0  0  0  0  0  0  0  0  0  0  0  0
    5.1310    1.3620   18.0500 C   0  0  0  0  0  0  0  0  0  0  0  0
    5.9780    0.3350   17.8250 N   0  0  0  0  0  0  0  0  0  0  0  0
    6.7090   -0.0940   18.8800 C   0  0  0  0  0  0  0  0  0  0  0  0
   11.6810    1.0750   22.7720 C   0  0  0  0  0  0  0  0  0  0  0  0
  1  2  1  0
  2  3  1  0
  3  4  1  0
  5  4  1  0
  5  6  1  1
  5  7  1  0
  7  8  1  0
  8 23  2  0
  8  9  1  0
  9 10  2  0
 10 11  1  0
 11 12  2  0
 12 13  1  0
 12 23  1  0
 13 14  1  0
 14 15  2  0
 14 16  1  0
 16 17  1  0
 17 18  2  0
 17 22  1  0
 18 19  1  0
 19 20  2  0
 20 21  1  0
 21 22  2  0
M  END
>  <original SMILES>  (660) 
CCCC[SH](O)Cc1cccc(NC(=O)Nc2cccnc2)c1

>  <AutoDock Predicted Affinity>  (660) 
-5.111676

>  <ref_pdb>  (660) 
x0434_0

>  <ref_mols>  (660) 
x0434_0

>  <creator>  (660) 
Will Poole

>  <energy minimised>  (660) 
True

$$$$
WPC1162_minimised.pdb
     RDKit          3D

 20 21  0  0  0  0  0  0  0  0999 V2000
   12.2500    5.2180   23.0650 C   0  0  0  0  0  0  0  0  0  0  0  0
   12.2450    3.6880   23.1980 C   0  0  0  0  0  0  0  0  0  0  0  0
   11.2410    3.1970   24.2590 C   0  0  0  0  0  0  0  0  0  0  0  0
   11.4570    1.7150   24.6340 C   0  0  0  0  0  0  0  0  0  0  0  0
   11.1230    0.7350   23.5320 C   0  0  0  0  0  0  0  0  0  0  0  0
   12.1420    0.0600   22.8370 C   0  0  0  0  0  0  0  0  0  0  0  0
   11.8150   -0.9220   21.8900 C   0  0  0  0  0  0  0  0  0  0  0  0
   10.4670   -1.1990   21.6170 C   0  0  0  0  0  0  0  0  0  0  0  0
    9.4540   -0.4790   22.2640 C   0  0  0  0  0  0  0  0  0  0  0  0
    8.1110   -0.6120   21.8690 N   0  0  0  0  0  0  0  0  0  0  0  0
    7.6750   -0.3140   20.6100 C   0  0  0  0  0  0  0  0  0  0  0  0
    8.4110   -0.1540   19.6550 O   0  0  0  0  0  0  0  0  0  0  0  0
    6.3200   -0.1500   20.5390 N   0  0  0  0  0  0  0  0  0  0  0  0
    5.6520    0.4720   19.4590 C   0  0  0  0  0  0  0  0  0  0  0  0
    4.7210    1.4820   19.7300 C   0  0  0  0  0  0  0  0  0  0  0  0
    4.1910    2.1870   18.6420 C   0  0  0  0  0  0  0  0  0  0  0  0
    4.6200    1.8800   17.3420 C   0  0  0  0  0  0  0  0  0  0  0  0
    5.4820    0.8750   17.0700 N   0  0  0  0  0  0  0  0  0  0  0  0
    5.9890    0.1950   18.1170 C   0  0  0  0  0  0  0  0  0  0  0  0
    9.7790    0.4690   23.2370 C   0  0  0  0  0  0  0  0  0  0  0  0
  1  2  1  0
  2  3  1  0
  3  4  1  0
  4  5  1  0
  5 20  2  0
  5  6  1  0
  6  7  2  0
  7  8  1  0
  8  9  2  0
  9 10  1  0
  9 20  1  0
 10 11  1  0
 11 12  2  0
 11 13  1  0
 13 14  1  0
 14 15  2  0
 14 19  1  0
 15 16  1  0
 16 17  2  0
 17 18  1  0
 18 19  2  0
M  END
>  <original SMILES>  (661) 
CCCCc1cccc(NC(=O)Nc2cccnc2)c1

>  <AutoDock Predicted Affinity>  (661) 
-5.618375

>  <ref_pdb>  (661) 
x0434_0

>  <ref_mols>  (661) 
x0434_0

>  <creator>  (661) 
Will Poole

>  <energy minimised>  (661) 
True

$$$$
WPC2034_minimised.pdb
     RDKit          3D

 24 25  0  0  0  0  0  0  0  0999 V2000
   13.9370    5.1050   22.4140 C   0  0  0  0  0  0  0  0  0  0  0  0
   12.6800    4.2510   22.6560 C   0  0  0  0  0  0  0  0  0  0  0  0
   11.9480    4.6220   23.9610 C   0  0  0  0  0  0  0  0  0  0  0  0
   10.7660    3.7710   24.2560 N   0  0  0  0  0  0  0  0  0  0  0  0
    9.6150    3.8710   23.3230 C   0  0  0  0  0  0  0  0  0  0  0  0
    9.0670    5.3010   23.1270 C   0  0  0  0  0  0  0  0  0  0  0  0
    9.8780    6.0790   22.2660 O   0  0  0  0  0  0  0  0  0  0  0  0
   11.0510    2.3970   24.7450 C   0  0  0  0  0  0  0  0  0  0  0  0
   11.0140    1.2670   23.7230 C   0  0  0  0  0  0  0  0  0  0  0  0
   12.1930    0.7160   23.1860 C   0  0  0  0  0  0  0  0  0  0  0  0
   12.1250   -0.3250   22.2440 C   0  0  0  0  0  0  0  0  0  0  0  0
   10.8750   -0.8210   21.8380 C   0  0  0  0  0  0  0  0  0  0  0  0
    9.7010   -0.2920   22.3920 C   0  0  0  0  0  0  0  0  0  0  0  0
    8.4280   -0.6670   21.9240 N   0  0  0  0  0  0  0  0  0  0  0  0
    7.9420   -0.2730   20.7100 C   0  0  0  0  0  0  0  0  0  0  0  0
    8.6330    0.1540   19.8070 O   0  0  0  0  0  0  0  0  0  0  0  0
    6.5780   -0.3230   20.6210 N   0  0  0  0  0  0  0  0  0  0  0  0
    5.8540    0.2930   19.5730 C   0  0  0  0  0  0  0  0  0  0  0  0
    4.9180    1.2890   19.8760 C   0  0  0  0  0  0  0  0  0  0  0  0
    4.3490    1.9950   18.8080 C   0  0  0  0  0  0  0  0  0  0  0  0
    4.7400    1.6970   17.4930 C   0  0  0  0  0  0  0  0  0  0  0  0
    5.6160    0.7120   17.1920 N   0  0  0  0  0  0  0  0  0  0  0  0
    6.1690    0.0400   18.2210 C   0  0  0  0  0  0  0  0  0  0  0  0
    9.7750    0.7230   23.3490 C   0  0  0  0  0  0  0  0  0  0  0  0
  1  2  1  0
  2  3  1  0
  3  4  1  0
  4  5  1  0
  4  8  1  0
  5  6  1  0
  6  7  1  0
  8  9  1  0
  9 24  2  0
  9 10  1  0
 10 11  2  0
 11 12  1  0
 12 13  2  0
 13 14  1  0
 13 24  1  0
 14 15  1  0
 15 16  2  0
 15 17  1  0
 17 18  1  0
 18 19  2  0
 18 23  1  0
 19 20  1  0
 20 21  2  0
 21 22  1  0
 22 23  2  0
M  END
>  <original SMILES>  (662) 
CCCN(CCO)Cc1cccc(NC(=O)Nc2cccnc2)c1

>  <AutoDock Predicted Affinity>  (662) 
-5.00036

>  <ref_pdb>  (662) 
x0434_0

>  <ref_mols>  (662) 
x0434_0

>  <creator>  (662) 
Will Poole

>  <energy minimised>  (662) 
True

$$$$
WPC2503_minimised.pdb
     RDKit          3D

 23 24  0  0  0  0  0  0  0  0999 V2000
    8.2690    5.4010   22.1200 C   0  0  0  0  0  0  0  0  0  0  0  0
    8.8890    4.2070   22.8600 C   0  0  0  0  0  0  0  0  0  0  0  0
   10.0900    4.6470   23.7150 C   0  0  0  0  0  0  0  0  0  0  0  0
   10.6860    3.5000   24.4020 N   0  0  0  0  0  0  0  0  0  0  0  0
   11.8780    2.9460   24.0030 C   0  0  0  0  0  0  0  0  0  0  0  0
   12.7370    3.5970   23.4450 O   0  0  0  0  0  0  0  0  0  0  0  0
   12.0520    1.4740   24.3470 C   0  0  0  0  0  0  0  0  0  0  0  0
   11.5180    0.5310   23.2940 C   0  0  0  0  0  0  0  0  0  0  0  0
   12.4000   -0.2530   22.5330 C   0  0  0  0  0  0  0  0  0  0  0  0
   11.8950   -1.2200   21.6540 C   0  0  0  0  0  0  0  0  0  0  0  0
   10.5080   -1.3710   21.5100 C   0  0  0  0  0  0  0  0  0  0  0  0
    9.6300   -0.5330   22.2070 C   0  0  0  0  0  0  0  0  0  0  0  0
    8.2570   -0.5340   21.8980 N   0  0  0  0  0  0  0  0  0  0  0  0
    7.7790   -0.1710   20.6710 C   0  0  0  0  0  0  0  0  0  0  0  0
    8.4880    0.0440   19.7080 O   0  0  0  0  0  0  0  0  0  0  0  0
    6.4200   -0.0260   20.6250 N   0  0  0  0  0  0  0  0  0  0  0  0
    5.7230    0.5610   19.5420 C   0  0  0  0  0  0  0  0  0  0  0  0
    4.7820    1.5650   19.7980 C   0  0  0  0  0  0  0  0  0  0  0  0
    4.2350    2.2380   18.6970 C   0  0  0  0  0  0  0  0  0  0  0  0
    4.6590    1.9090   17.4020 C   0  0  0  0  0  0  0  0  0  0  0  0
    5.5250    0.9040   17.1440 N   0  0  0  0  0  0  0  0  0  0  0  0
    6.0480    0.2550   18.2020 C   0  0  0  0  0  0  0  0  0  0  0  0
   10.1320    0.3990   23.1200 C   0  0  0  0  0  0  0  0  0  0  0  0
  1  2  1  0
  2  3  1  0
  3  4  1  0
  4  5  1  0
  5  6  2  0
  5  7  1  0
  7  8  1  0
  8 23  2  0
  8  9  1  0
  9 10  2  0
 10 11  1  0
 11 12  2  0
 12 13  1  0
 12 23  1  0
 13 14  1  0
 14 15  2  0
 14 16  1  0
 16 17  1  0
 17 18  2  0
 17 22  1  0
 18 19  1  0
 19 20  2  0
 20 21  1  0
 21 22  2  0
M  END
>  <original SMILES>  (663) 
CCCNC(=O)Cc1cccc(NC(=O)Nc2cccnc2)c1

>  <AutoDock Predicted Affinity>  (663) 
-5.93226

>  <ref_pdb>  (663) 
x0434_0

>  <ref_mols>  (663) 
x0434_0

>  <creator>  (663) 
Will Poole

>  <energy minimised>  (663) 
True

$$$$
WPC1276_minimised.pdb
     RDKit          3D

 24 25  0  0  0  0  0  0  0  0999 V2000
    8.3400    5.4020   21.6380 C   0  0  0  0  0  0  0  0  0  0  0  0
    7.9070    3.9270   21.7090 C   0  0  0  0  0  0  0  0  0  0  0  0
    8.2160    3.3470   23.0780 C   0  0  0  0  0  0  0  0  0  0  0  0
    9.6520    3.1420   23.2500 N   0  0  0  0  0  0  0  0  0  0  0  0
   10.5100    4.0230   23.8490 C   0  0  0  0  0  0  0  0  0  0  0  0
   10.1830    5.0840   24.3480 O   0  0  0  0  0  0  0  0  0  0  0  0
   12.1880    3.3900   23.7650 S   0  0  0  0  0  0  0  0  0  0  0  0
   12.0160    1.6620   24.4210 C   0  0  0  0  0  0  0  0  0  0  0  0
   11.5600    0.6140   23.4310 C   0  0  0  0  0  0  0  0  0  0  0  0
   12.4950   -0.0150   22.5920 C   0  0  0  0  0  0  0  0  0  0  0  0
   12.0760   -1.0160   21.7030 C   0  0  0  0  0  0  0  0  0  0  0  0
   10.7120   -1.3270   21.6030 C   0  0  0  0  0  0  0  0  0  0  0  0
    9.7750   -0.6600   22.4000 C   0  0  0  0  0  0  0  0  0  0  0  0
    8.4070   -0.7130   22.0680 N   0  0  0  0  0  0  0  0  0  0  0  0
    7.9270   -0.1680   20.9060 C   0  0  0  0  0  0  0  0  0  0  0  0
    8.6410    0.2910   20.0340 O   0  0  0  0  0  0  0  0  0  0  0  0
    6.5650   -0.1430   20.8010 N   0  0  0  0  0  0  0  0  0  0  0  0
    5.8810    0.4540   19.7150 C   0  0  0  0  0  0  0  0  0  0  0  0
    4.9550    1.4780   19.9520 C   0  0  0  0  0  0  0  0  0  0  0  0
    4.4220    2.1420   18.8390 C   0  0  0  0  0  0  0  0  0  0  0  0
    4.8270    1.7700   17.5470 C   0  0  0  0  0  0  0  0  0  0  0  0
    5.6890    0.7570   17.3090 N   0  0  0  0  0  0  0  0  0  0  0  0
    6.2140    0.1310   18.3800 C   0  0  0  0  0  0  0  0  0  0  0  0
   10.2070    0.2430   23.3730 C   0  0  0  0  0  0  0  0  0  0  0  0
  1  2  1  0
  2  3  1  0
  3  4  1  0
  4  5  1  0
  5  6  2  0
  5  7  1  0
  7  8  1  0
  8  9  1  0
  9 24  2  0
  9 10  1  0
 10 11  2  0
 11 12  1  0
 12 13  2  0
 13 14  1  0
 13 24  1  0
 14 15  1  0
 15 16  2  0
 15 17  1  0
 17 18  1  0
 18 19  2  0
 18 23  1  0
 19 20  1  0
 20 21  2  0
 21 22  1  0
 22 23  2  0
M  END
>  <original SMILES>  (664) 
CCCNC(=O)SCc1cccc(NC(=O)Nc2cccnc2)c1

>  <AutoDock Predicted Affinity>  (664) 
-5.43516

>  <ref_pdb>  (664) 
x0434_0

>  <ref_mols>  (664) 
x0434_0

>  <creator>  (664) 
Will Poole

>  <energy minimised>  (664) 
True

$$$$
WPC2568_minimised.pdb
     RDKit          3D

 24 25  0  0  0  0  0  0  0  0999 V2000
   13.8970    4.6480   22.7610 C   0  0  0  0  0  0  0  0  0  0  0  0
   12.7020    4.5020   21.8020 C   0  0  0  0  0  0  0  0  0  0  0  0
   11.7390    3.3620   22.2050 C   0  0  0  0  0  0  0  0  0  0  0  0
   10.6330    3.8740   23.0130 N   0  0  0  0  0  0  0  0  0  0  0  0
   10.8000    4.0900   24.3450 C   0  0  0  0  0  0  0  0  0  0  0  0
   10.9680    5.6340   24.8960 S   0  0  0  0  0  0  0  0  0  0  0  0
   11.1890    3.0320   25.1220 N   0  0  0  0  0  0  0  0  0  0  0  0
   10.4820    1.7420   25.1970 C   0  0  0  0  0  0  0  0  0  0  0  0
   10.6690    0.7870   24.0370 C   0  0  0  0  0  0  0  0  0  0  0  0
   11.9390    0.3460   23.6200 C   0  0  0  0  0  0  0  0  0  0  0  0
   12.0540   -0.5210   22.5190 C   0  0  0  0  0  0  0  0  0  0  0  0
   10.8980   -0.9940   21.8750 C   0  0  0  0  0  0  0  0  0  0  0  0
    9.6350   -0.5900   22.3290 C   0  0  0  0  0  0  0  0  0  0  0  0
    8.4460   -0.9940   21.7020 N   0  0  0  0  0  0  0  0  0  0  0  0
    7.9820   -0.4320   20.5510 C   0  0  0  0  0  0  0  0  0  0  0  0
    8.6740    0.1770   19.7630 O   0  0  0  0  0  0  0  0  0  0  0  0
    6.6300   -0.5540   20.4070 N   0  0  0  0  0  0  0  0  0  0  0  0
    5.8920    0.1370   19.4220 C   0  0  0  0  0  0  0  0  0  0  0  0
    4.9470    1.0970   19.8040 C   0  0  0  0  0  0  0  0  0  0  0  0
    4.3500    1.8600   18.7910 C   0  0  0  0  0  0  0  0  0  0  0  0
    4.7250    1.6520   17.4550 C   0  0  0  0  0  0  0  0  0  0  0  0
    5.6160    0.7070   17.0810 N   0  0  0  0  0  0  0  0  0  0  0  0
    6.1980   -0.0170   18.0560 C   0  0  0  0  0  0  0  0  0  0  0  0
    9.5240    0.3030   23.3950 C   0  0  0  0  0  0  0  0  0  0  0  0
  1  2  1  0
  2  3  1  0
  3  4  1  0
  4  5  1  0
  5  6  2  0
  5  7  1  0
  7  8  1  0
  8  9  1  0
  9 24  2  0
  9 10  1  0
 10 11  2  0
 11 12  1  0
 12 13  2  0
 13 14  1  0
 13 24  1  0
 14 15  1  0
 15 16  2  0
 15 17  1  0
 17 18  1  0
 18 19  2  0
 18 23  1  0
 19 20  1  0
 20 21  2  0
 21 22  1  0
 22 23  2  0
M  END
>  <original SMILES>  (665) 
CCCNC(=S)NCc1cccc(NC(=O)Nc2cccnc2)c1

>  <AutoDock Predicted Affinity>  (665) 
-5.01197

>  <ref_pdb>  (665) 
x0434_0

>  <ref_mols>  (665) 
x0434_0

>  <creator>  (665) 
Will Poole

>  <energy minimised>  (665) 
True

$$$$
WPC2198_minimised.pdb
     RDKit          3D

 22 23  0  0  0  0  0  0  0  0999 V2000
   14.2450    6.4260   21.8730 C   0  0  0  0  0  0  0  0  0  0  0  0
   13.8300    4.9510   21.8790 C   0  0  0  0  0  0  0  0  0  0  0  0
   12.9760    4.5520   23.0910 C   0  0  0  0  0  0  0  0  0  0  0  0
   11.5550    4.8670   22.8740 N   0  0  0  0  0  0  0  0  0  0  0  0
   10.6070    4.4690   23.9350 C   0  0  0  0  0  0  0  0  0  0  0  0
   10.8500    3.0760   24.5700 C   0  0  0  0  0  0  0  0  0  0  0  0
   10.7540    1.8660   23.6500 C   0  0  0  0  0  0  0  0  0  0  0  0
   11.8940    1.1050   23.3230 C   0  0  0  0  0  0  0  0  0  0  0  0
   11.7830   -0.0350   22.5090 C   0  0  0  0  0  0  0  0  0  0  0  0
   10.5220   -0.4410   22.0450 C   0  0  0  0  0  0  0  0  0  0  0  0
    9.3820    0.2920   22.4050 C   0  0  0  0  0  0  0  0  0  0  0  0
    8.1070   -0.0750   21.9420 N   0  0  0  0  0  0  0  0  0  0  0  0
    7.7250    0.0040   20.6360 C   0  0  0  0  0  0  0  0  0  0  0  0
    8.4950    0.1100   19.7030 O   0  0  0  0  0  0  0  0  0  0  0  0
    6.3670    0.0400   20.4960 N   0  0  0  0  0  0  0  0  0  0  0  0
    5.7010    0.5950   19.3810 C   0  0  0  0  0  0  0  0  0  0  0  0
    4.7290    1.5770   19.6060 C   0  0  0  0  0  0  0  0  0  0  0  0
    4.2050    2.2410   18.4910 C   0  0  0  0  0  0  0  0  0  0  0  0
    4.6860    1.9300   17.2120 C   0  0  0  0  0  0  0  0  0  0  0  0
    5.5870    0.9470   16.9830 N   0  0  0  0  0  0  0  0  0  0  0  0
    6.0860    0.3030   18.0560 C   0  0  0  0  0  0  0  0  0  0  0  0
    9.4970    1.4410   23.1980 C   0  0  0  0  0  0  0  0  0  0  0  0
  1  2  1  0
  2  3  1  0
  3  4  1  0
  4  5  1  0
  5  6  1  0
  6  7  1  0
  7 22  2  0
  7  8  1  0
  8  9  2  0
  9 10  1  0
 10 11  2  0
 11 12  1  0
 11 22  1  0
 12 13  1  0
 13 14  2  0
 13 15  1  0
 15 16  1  0
 16 17  2  0
 16 21  1  0
 17 18  1  0
 18 19  2  0
 19 20  1  0
 20 21  2  0
M  END
>  <original SMILES>  (666) 
CCCNCCc1cccc(NC(=O)Nc2cccnc2)c1

>  <AutoDock Predicted Affinity>  (666) 
-5.505723

>  <ref_pdb>  (666) 
x0434_0

>  <ref_mols>  (666) 
x0434_0

>  <creator>  (666) 
Will Poole

>  <energy minimised>  (666) 
True

$$$$
WPC2368_minimised.pdb
     RDKit          3D

 24 25  0  0  0  0  0  0  0  0999 V2000
    9.0440    6.0890   22.6840 C   0  0  0  0  0  0  0  0  0  0  0  0
   10.0770    5.6240   23.7220 C   0  0  0  0  0  0  0  0  0  0  0  0
   10.1800    4.0940   23.8090 C   0  0  0  0  0  0  0  0  0  0  0  0
   11.0320    3.5230   22.7720 N   0  0  0  0  0  0  0  0  0  0  0  0
   12.6490    3.5570   22.9260 S   0  0  0  0  0  0  0  0  0  0  0  0
   12.9420    4.5100   23.9750 O   0  0  0  0  0  0  0  0  0  0  0  0
   13.0910    3.8510   21.5920 O   0  0  0  0  0  0  0  0  0  0  0  0
   13.0170    1.8870   23.4850 C   0  0  0  0  0  0  0  0  0  0  0  0
   12.3450    0.6980   22.8160 C   0  0  0  0  0  0  0  0  0  0  0  0
   13.1390   -0.2830   22.2040 C   0  0  0  0  0  0  0  0  0  0  0  0
   12.5450   -1.4000   21.6010 C   0  0  0  0  0  0  0  0  0  0  0  0
   11.1480   -1.5380   21.6040 C   0  0  0  0  0  0  0  0  0  0  0  0
   10.3490   -0.5700   22.2220 C   0  0  0  0  0  0  0  0  0  0  0  0
    8.9460   -0.6030   22.0650 N   0  0  0  0  0  0  0  0  0  0  0  0
    8.3270   -0.1990   20.9110 C   0  0  0  0  0  0  0  0  0  0  0  0
    8.9390    0.1420   19.9210 O   0  0  0  0  0  0  0  0  0  0  0  0
    6.9580   -0.1760   20.9380 N   0  0  0  0  0  0  0  0  0  0  0  0
    6.1670    0.3420   19.8780 C   0  0  0  0  0  0  0  0  0  0  0  0
    5.2210    1.3400   20.1440 C   0  0  0  0  0  0  0  0  0  0  0  0
    4.5780    1.9400   19.0520 C   0  0  0  0  0  0  0  0  0  0  0  0
    4.9070    1.5420   17.7470 C   0  0  0  0  0  0  0  0  0  0  0  0
    5.7760    0.5430   17.4810 N   0  0  0  0  0  0  0  0  0  0  0  0
    6.4030   -0.0250   18.5330 C   0  0  0  0  0  0  0  0  0  0  0  0
   10.9490    0.5180   22.8630 C   0  0  0  0  0  0  0  0  0  0  0  0
  1  2  1  0
  2  3  1  0
  3  4  1  0
  4  5  1  0
  5  6  2  0
  5  7  2  0
  5  8  1  0
  8  9  1  0
  9 24  2  0
  9 10  1  0
 10 11  2  0
 11 12  1  0
 12 13  2  0
 13 14  1  0
 13 24  1  0
 14 15  1  0
 15 16  2  0
 15 17  1  0
 17 18  1  0
 18 19  2  0
 18 23  1  0
 19 20  1  0
 20 21  2  0
 21 22  1  0
 22 23  2  0
M  END
>  <original SMILES>  (667) 
CCCNS(=O)(=O)Cc1cccc(NC(=O)Nc2cccnc2)c1

>  <AutoDock Predicted Affinity>  (667) 
-5.50414

>  <ref_pdb>  (667) 
x0434_0

>  <ref_mols>  (667) 
x0434_0

>  <creator>  (667) 
Will Poole

>  <energy minimised>  (667) 
True

$$$$
WPC2307_minimised.pdb
     RDKit          3D

 23 24  0  0  0  0  0  0  0  0999 V2000
   14.1360    5.5420   21.6040 C   0  0  0  0  0  0  0  0  0  0  0  0
   13.8100    4.6400   22.8030 C   0  0  0  0  0  0  0  0  0  0  0  0
   12.4040    4.9090   23.3600 C   0  0  0  0  0  0  0  0  0  0  0  0
   12.0020    3.7020   24.0150 O   0  0  0  0  0  0  0  0  0  0  0  0
   10.7020    3.5740   24.3880 C   0  0  0  0  0  0  0  0  0  0  0  0
    9.9100    4.5000   24.4400 O   0  0  0  0  0  0  0  0  0  0  0  0
   10.4410    2.1750   24.9290 C   0  0  0  0  0  0  0  0  0  0  0  0
   10.4610    1.1100   23.8510 C   0  0  0  0  0  0  0  0  0  0  0  0
   11.6760    0.6070   23.3490 C   0  0  0  0  0  0  0  0  0  0  0  0
   11.6720   -0.3820   22.3510 C   0  0  0  0  0  0  0  0  0  0  0  0
   10.4510   -0.8620   21.8500 C   0  0  0  0  0  0  0  0  0  0  0  0
    9.2430   -0.3510   22.3490 C   0  0  0  0  0  0  0  0  0  0  0  0
    8.0040   -0.6990   21.7850 N   0  0  0  0  0  0  0  0  0  0  0  0
    7.6600   -0.3780   20.5060 C   0  0  0  0  0  0  0  0  0  0  0  0
    8.4570   -0.1410   19.6190 O   0  0  0  0  0  0  0  0  0  0  0  0
    6.3080   -0.2620   20.3550 N   0  0  0  0  0  0  0  0  0  0  0  0
    5.6850    0.4300   19.2930 C   0  0  0  0  0  0  0  0  0  0  0  0
    4.7340    1.4150   19.5860 C   0  0  0  0  0  0  0  0  0  0  0  0
    4.2410    2.1790   18.5210 C   0  0  0  0  0  0  0  0  0  0  0  0
    4.7270    1.9560   17.2250 C   0  0  0  0  0  0  0  0  0  0  0  0
    5.6180    0.9820   16.9320 N   0  0  0  0  0  0  0  0  0  0  0  0
    6.0890    0.2450   17.9560 C   0  0  0  0  0  0  0  0  0  0  0  0
    9.2480    0.6230   23.3500 C   0  0  0  0  0  0  0  0  0  0  0  0
  1  2  1  0
  2  3  1  0
  3  4  1  0
  4  5  1  0
  5  6  2  0
  5  7  1  0
  7  8  1  0
  8 23  2  0
  8  9  1  0
  9 10  2  0
 10 11  1  0
 11 12  2  0
 12 13  1  0
 12 23  1  0
 13 14  1  0
 14 15  2  0
 14 16  1  0
 16 17  1  0
 17 18  2  0
 17 22  1  0
 18 19  1  0
 19 20  2  0
 20 21  1  0
 21 22  2  0
M  END
>  <original SMILES>  (668) 
CCCOC(=O)Cc1cccc(NC(=O)Nc2cccnc2)c1

>  <AutoDock Predicted Affinity>  (668) 
-5.654345

>  <ref_pdb>  (668) 
x0434_0

>  <ref_mols>  (668) 
x0434_0

>  <creator>  (668) 
Will Poole

>  <energy minimised>  (668) 
True

$$$$
WPC2097_minimised.pdb
     RDKit          3D

 20 21  0  0  0  0  0  0  0  0999 V2000
   14.0880    5.5470   21.9370 C   0  0  0  0  0  0  0  0  0  0  0  0
   13.4090    4.7820   23.0870 C   0  0  0  0  0  0  0  0  0  0  0  0
   11.9020    4.5840   22.8630 C   0  0  0  0  0  0  0  0  0  0  0  0
   11.1620    3.6500   24.2640 S   0  0  0  0  0  0  0  0  0  0  0  0
   11.0680    2.0050   23.5940 C   0  0  0  0  0  0  0  0  0  0  0  0
   12.2240    1.2580   23.3100 C   0  0  0  0  0  0  0  0  0  0  0  0
   12.1130    0.0100   22.6720 C   0  0  0  0  0  0  0  0  0  0  0  0
   10.8470   -0.4990   22.3380 C   0  0  0  0  0  0  0  0  0  0  0  0
    9.6950    0.2430   22.6410 C   0  0  0  0  0  0  0  0  0  0  0  0
    8.4230   -0.1820   22.2150 N   0  0  0  0  0  0  0  0  0  0  0  0
    7.9610    0.0270   20.9470 C   0  0  0  0  0  0  0  0  0  0  0  0
    8.6720    0.3500   20.0180 O   0  0  0  0  0  0  0  0  0  0  0  0
    6.6040   -0.0860   20.8210 N   0  0  0  0  0  0  0  0  0  0  0  0
    5.8870    0.4250   19.7130 C   0  0  0  0  0  0  0  0  0  0  0  0
    4.9180    1.4120   19.9280 C   0  0  0  0  0  0  0  0  0  0  0  0
    4.3620    2.0350   18.8040 C   0  0  0  0  0  0  0  0  0  0  0  0
    4.7930    1.6640   17.5220 C   0  0  0  0  0  0  0  0  0  0  0  0
    5.6910    0.6770   17.3020 N   0  0  0  0  0  0  0  0  0  0  0  0
    6.2380    0.0890   18.3870 C   0  0  0  0  0  0  0  0  0  0  0  0
    9.8080    1.4920   23.2660 C   0  0  0  0  0  0  0  0  0  0  0  0
  1  2  1  0
  2  3  1  0
  3  4  1  0
  4  5  1  0
  5 20  2  0
  5  6  1  0
  6  7  2  0
  7  8  1  0
  8  9  2  0
  9 10  1  0
  9 20  1  0
 10 11  1  0
 11 12  2  0
 11 13  1  0
 13 14  1  0
 14 15  2  0
 14 19  1  0
 15 16  1  0
 16 17  2  0
 17 18  1  0
 18 19  2  0
M  END
>  <original SMILES>  (669) 
CCCSc1cccc(NC(=O)Nc2cccnc2)c1

>  <AutoDock Predicted Affinity>  (669) 
-5.271754

>  <ref_pdb>  (669) 
x0434_0

>  <ref_mols>  (669) 
x0434_0

>  <creator>  (669) 
Will Poole

>  <energy minimised>  (669) 
True

$$$$
WPC1192_minimised.pdb
     RDKit          3D

 19 20  0  0  0  0  0  0  0  0999 V2000
   11.7500    4.6240   22.9710 C   0  0  0  0  0  0  0  0  0  0  0  0
   10.5300    4.1680   23.7940 C   0  0  0  0  0  0  0  0  0  0  0  0
   10.7930    2.8410   24.5340 C   0  0  0  0  0  0  0  0  0  0  0  0
   10.8080    1.6230   23.6280 C   0  0  0  0  0  0  0  0  0  0  0  0
   12.0140    1.0580   23.1730 C   0  0  0  0  0  0  0  0  0  0  0  0
   11.9930   -0.0590   22.3180 C   0  0  0  0  0  0  0  0  0  0  0  0
   10.7650   -0.6120   21.9180 C   0  0  0  0  0  0  0  0  0  0  0  0
    9.5650   -0.0520   22.3810 C   0  0  0  0  0  0  0  0  0  0  0  0
    8.3120   -0.5070   21.9300 N   0  0  0  0  0  0  0  0  0  0  0  0
    7.8510   -0.2750   20.6680 C   0  0  0  0  0  0  0  0  0  0  0  0
    8.5630   -0.0060   19.7210 O   0  0  0  0  0  0  0  0  0  0  0  0
    6.4860   -0.2830   20.5850 N   0  0  0  0  0  0  0  0  0  0  0  0
    5.7700    0.3240   19.5270 C   0  0  0  0  0  0  0  0  0  0  0  0
    4.8310    1.3200   19.8250 C   0  0  0  0  0  0  0  0  0  0  0  0
    4.2700    2.0260   18.7530 C   0  0  0  0  0  0  0  0  0  0  0  0
    4.6680    1.7270   17.4420 C   0  0  0  0  0  0  0  0  0  0  0  0
    5.5420    0.7390   17.1460 N   0  0  0  0  0  0  0  0  0  0  0  0
    6.0880    0.0650   18.1780 C   0  0  0  0  0  0  0  0  0  0  0  0
    9.5880    1.0540   23.2370 C   0  0  0  0  0  0  0  0  0  0  0  0
  1  2  1  0
  2  3  1  0
  3  4  1  0
  4 19  2  0
  4  5  1  0
  5  6  2  0
  6  7  1  0
  7  8  2  0
  8  9  1  0
  8 19  1  0
  9 10  1  0
 10 11  2  0
 10 12  1  0
 12 13  1  0
 13 14  2  0
 13 18  1  0
 14 15  1  0
 15 16  2  0
 16 17  1  0
 17 18  2  0
M  END
>  <original SMILES>  (670) 
CCCc1cccc(NC(=O)Nc2cccnc2)c1

>  <AutoDock Predicted Affinity>  (670) 
-5.61234

>  <ref_pdb>  (670) 
x0434_0

>  <ref_mols>  (670) 
x0434_0

>  <creator>  (670) 
Will Poole

>  <energy minimised>  (670) 
True

$$$$
WPC2325_minimised.pdb
     RDKit          3D

 24 25  0  0  0  0  0  0  0  0999 V2000
    8.6010    4.9170   22.6410 C   0  0  0  0  0  0  0  0  0  0  0  0
    9.8920    5.7490   22.7450 C   0  0  0  0  0  0  0  0  0  0  0  0
   10.9680    5.0200   23.4380 N   0  0  0  0  0  0  0  0  0  0  0  0
   11.0590    5.2740   24.8810 C   0  0  0  0  0  0  0  0  0  0  0  0
   12.2680    6.1540   25.2380 C   0  0  0  0  0  0  0  0  0  0  0  0
   11.9960    4.3970   22.7330 C   0  0  0  0  0  0  0  0  0  0  0  0
   12.4960    4.9390   21.7670 O   0  0  0  0  0  0  0  0  0  0  0  0
   12.5190    3.0610   23.2840 C   0  0  0  0  0  0  0  0  0  0  0  0
   11.9600    1.7580   22.7240 C   0  0  0  0  0  0  0  0  0  0  0  0
   12.8400    0.7000   22.4240 C   0  0  0  0  0  0  0  0  0  0  0  0
   12.3460   -0.5350   21.9730 C   0  0  0  0  0  0  0  0  0  0  0  0
   10.9630   -0.7310   21.8520 C   0  0  0  0  0  0  0  0  0  0  0  0
   10.0790    0.3070   22.1800 C   0  0  0  0  0  0  0  0  0  0  0  0
    8.6900    0.1320   22.0060 N   0  0  0  0  0  0  0  0  0  0  0  0
    8.0740    0.1700   20.7870 C   0  0  0  0  0  0  0  0  0  0  0  0
    8.6820    0.2290   19.7400 O   0  0  0  0  0  0  0  0  0  0  0  0
    6.7060    0.2020   20.8300 N   0  0  0  0  0  0  0  0  0  0  0  0
    5.9040    0.6250   19.7400 C   0  0  0  0  0  0  0  0  0  0  0  0
    4.9540    1.6300   19.9550 C   0  0  0  0  0  0  0  0  0  0  0  0
    4.3220    2.1800   18.8330 C   0  0  0  0  0  0  0  0  0  0  0  0
    4.6700    1.7290   17.5520 C   0  0  0  0  0  0  0  0  0  0  0  0
    5.5350    0.7120   17.3380 N   0  0  0  0  0  0  0  0  0  0  0  0
    6.1430    0.1840   18.4190 C   0  0  0  0  0  0  0  0  0  0  0  0
   10.5760    1.5450   22.6160 C   0  0  0  0  0  0  0  0  0  0  0  0
  1  2  1  0
  2  3  1  0
  3  4  1  0
  3  6  1  0
  4  5  1  0
  6  7  2  0
  6  8  1  0
  8  9  1  0
  9 24  2  0
  9 10  1  0
 10 11  2  0
 11 12  1  0
 12 13  2  0
 13 14  1  0
 13 24  1  0
 14 15  1  0
 15 16  2  0
 15 17  1  0
 17 18  1  0
 18 19  2  0
 18 23  1  0
 19 20  1  0
 20 21  2  0
 21 22  1  0
 22 23  2  0
M  END
>  <original SMILES>  (671) 
CCN(CC)C(=O)Cc1cccc(NC(=O)Nc2cccnc2)c1

>  <AutoDock Predicted Affinity>  (671) 
-5.6449

>  <ref_pdb>  (671) 
x0434_0

>  <ref_mols>  (671) 
x0434_0

>  <creator>  (671) 
Will Poole

>  <energy minimised>  (671) 
True

$$$$
WPC2526_minimised.pdb
     RDKit          3D

 22 23  0  0  0  0  0  0  0  0999 V2000
   13.2340    5.1030   23.3100 C   0  0  0  0  0  0  0  0  0  0  0  0
   12.5300    3.7750   22.9950 C   0  0  0  0  0  0  0  0  0  0  0  0
   11.4430    3.4830   23.9540 N   0  0  0  0  0  0  0  0  0  0  0  0
   10.0940    3.8870   23.4910 C   0  0  0  0  0  0  0  0  0  0  0  0
    9.8870    5.4090   23.3850 C   0  0  0  0  0  0  0  0  0  0  0  0
   11.4790    2.0900   24.4580 C   0  0  0  0  0  0  0  0  0  0  0  0
   11.1860    1.0020   23.4410 C   0  0  0  0  0  0  0  0  0  0  0  0
   12.2370    0.2980   22.8220 C   0  0  0  0  0  0  0  0  0  0  0  0
   11.9560   -0.7620   21.9450 C   0  0  0  0  0  0  0  0  0  0  0  0
   10.6230   -1.1060   21.6750 C   0  0  0  0  0  0  0  0  0  0  0  0
    9.5770   -0.3850   22.2660 C   0  0  0  0  0  0  0  0  0  0  0  0
    8.2440   -0.6010   21.8740 N   0  0  0  0  0  0  0  0  0  0  0  0
    7.7770   -0.2660   20.6350 C   0  0  0  0  0  0  0  0  0  0  0  0
    8.4920    0.0140   19.6930 O   0  0  0  0  0  0  0  0  0  0  0  0
    6.4130   -0.2020   20.5670 N   0  0  0  0  0  0  0  0  0  0  0  0
    5.7140    0.4150   19.5040 C   0  0  0  0  0  0  0  0  0  0  0  0
    4.7810    1.4190   19.7910 C   0  0  0  0  0  0  0  0  0  0  0  0
    4.2340    2.1250   18.7110 C   0  0  0  0  0  0  0  0  0  0  0  0
    4.6460    1.8240   17.4050 C   0  0  0  0  0  0  0  0  0  0  0  0
    5.5120    0.8250   17.1190 N   0  0  0  0  0  0  0  0  0  0  0  0
    6.0380    0.1470   18.1570 C   0  0  0  0  0  0  0  0  0  0  0  0
    9.8570    0.6480   23.1650 C   0  0  0  0  0  0  0  0  0  0  0  0
  1  2  1  0
  2  3  1  0
  3  4  1  0
  3  6  1  0
  4  5  1  0
  6  7  1  0
  7 22  2  0
  7  8  1  0
  8  9  2  0
  9 10  1  0
 10 11  2  0
 11 12  1  0
 11 22  1  0
 12 13  1  0
 13 14  2  0
 13 15  1  0
 15 16  1  0
 16 17  2  0
 16 21  1  0
 17 18  1  0
 18 19  2  0
 19 20  1  0
 20 21  2  0
M  END
>  <original SMILES>  (672) 
CCN(CC)Cc1cccc(NC(=O)Nc2cccnc2)c1

>  <AutoDock Predicted Affinity>  (672) 
-5.378335

>  <ref_pdb>  (672) 
x0434_0

>  <ref_mols>  (672) 
x0434_0

>  <creator>  (672) 
Will Poole

>  <energy minimised>  (672) 
True

$$$$
WPC1714_minimised.pdb
     RDKit          3D

 24 25  0  0  1  0  0  0  0  0999 V2000
    7.4600    4.0150   22.1880 C   0  0  0  0  0  0  0  0  0  0  0  0
    8.4060    5.2150   21.9940 C   0  0  0  0  0  0  0  0  0  0  0  0
    9.7790    4.8730   22.3780 N   0  0  0  0  0  0  0  0  0  0  0  0
   10.3150    5.1290   23.6120 C   0  0  0  0  0  0  0  0  0  0  0  0
    9.7360    5.8390   24.4000 O   0  0  0  0  0  0  0  0  0  0  0  0
   11.6620    4.5150   23.9910 C   0  0  2  0  0  0  0  0  0  0  0  0
   12.6360    5.6350   24.4000 C   0  0  0  0  0  0  0  0  0  0  0  0
   12.4780    3.5100   22.6800 S   0  0  0  0  0  0  0  0  0  0  0  0
   11.8720    1.8350   22.8300 C   0  0  0  0  0  0  0  0  0  0  0  0
   12.7930    0.7760   22.8940 C   0  0  0  0  0  0  0  0  0  0  0  0
   12.3500   -0.5560   22.8040 C   0  0  0  0  0  0  0  0  0  0  0  0
   10.9810   -0.8370   22.6800 C   0  0  0  0  0  0  0  0  0  0  0  0
   10.0600    0.2170   22.6250 C   0  0  0  0  0  0  0  0  0  0  0  0
    8.7070   -0.0330   22.3180 N   0  0  0  0  0  0  0  0  0  0  0  0
    8.1750    0.2190   21.0840 C   0  0  0  0  0  0  0  0  0  0  0  0
    8.8480    0.5680   20.1360 O   0  0  0  0  0  0  0  0  0  0  0  0
    6.8160    0.0970   20.9930 N   0  0  0  0  0  0  0  0  0  0  0  0
    6.0720    0.5420   19.8720 C   0  0  0  0  0  0  0  0  0  0  0  0
    5.0950    1.5280   20.0520 C   0  0  0  0  0  0  0  0  0  0  0  0
    4.5100    2.0800   18.9050 C   0  0  0  0  0  0  0  0  0  0  0  0
    4.9210    1.6450   17.6360 C   0  0  0  0  0  0  0  0  0  0  0  0
    5.8240    0.6550   17.4530 N   0  0  0  0  0  0  0  0  0  0  0  0
    6.3990    0.1350   18.5580 C   0  0  0  0  0  0  0  0  0  0  0  0
   10.5050    1.5460   22.7000 C   0  0  0  0  0  0  0  0  0  0  0  0
  1  2  1  0
  2  3  1  0
  3  4  1  0
  4  5  2  0
  4  6  1  0
  6  7  1  6
  6  8  1  0
  8  9  1  0
  9 24  2  0
  9 10  1  0
 10 11  2  0
 11 12  1  0
 12 13  2  0
 13 14  1  0
 13 24  1  0
 14 15  1  0
 15 16  2  0
 15 17  1  0
 17 18  1  0
 18 19  2  0
 18 23  1  0
 19 20  1  0
 20 21  2  0
 21 22  1  0
 22 23  2  0
M  END
>  <original SMILES>  (673) 
CCNC(=O)C(C)Sc1cccc(NC(=O)Nc2cccnc2)c1

>  <AutoDock Predicted Affinity>  (673) 
-5.416795

>  <ref_pdb>  (673) 
x0434_0

>  <ref_mols>  (673) 
x0434_0

>  <creator>  (673) 
Will Poole

>  <energy minimised>  (673) 
True

$$$$
WPC2139_minimised.pdb
     RDKit          3D

 23 24  0  0  0  0  0  0  0  0999 V2000
   14.0600    5.4380   20.9110 C   0  0  0  0  0  0  0  0  0  0  0  0
   13.7160    4.9520   22.3170 C   0  0  0  0  0  0  0  0  0  0  0  0
   12.2700    4.9150   22.5280 N   0  0  0  0  0  0  0  0  0  0  0  0
   11.7540    4.8100   23.7900 C   0  0  0  0  0  0  0  0  0  0  0  0
   12.3810    5.1830   24.7640 O   0  0  0  0  0  0  0  0  0  0  0  0
   10.4130    4.1070   23.9220 C   0  0  0  0  0  0  0  0  0  0  0  0
   10.5810    2.7460   24.6400 C   0  0  0  0  0  0  0  0  0  0  0  0
   10.7430    1.5740   23.6920 C   0  0  0  0  0  0  0  0  0  0  0  0
   12.0080    1.1100   23.2860 C   0  0  0  0  0  0  0  0  0  0  0  0
   12.1060    0.0080   22.4170 C   0  0  0  0  0  0  0  0  0  0  0  0
   10.9420   -0.6280   21.9500 C   0  0  0  0  0  0  0  0  0  0  0  0
    9.6840   -0.1630   22.3630 C   0  0  0  0  0  0  0  0  0  0  0  0
    8.4860   -0.6970   21.8550 N   0  0  0  0  0  0  0  0  0  0  0  0
    7.9900   -0.3410   20.6350 C   0  0  0  0  0  0  0  0  0  0  0  0
    8.6690    0.1120   19.7360 O   0  0  0  0  0  0  0  0  0  0  0  0
    6.6300   -0.4400   20.5430 N   0  0  0  0  0  0  0  0  0  0  0  0
    5.8900    0.2030   19.5240 C   0  0  0  0  0  0  0  0  0  0  0  0
    4.9650    1.1980   19.8680 C   0  0  0  0  0  0  0  0  0  0  0  0
    4.3940    1.9440   18.8280 C   0  0  0  0  0  0  0  0  0  0  0  0
    4.7730    1.6880   17.5020 C   0  0  0  0  0  0  0  0  0  0  0  0
    5.6360    0.7050   17.1620 N   0  0  0  0  0  0  0  0  0  0  0  0
    6.1900   -0.0070   18.1630 C   0  0  0  0  0  0  0  0  0  0  0  0
    9.5890    0.9290   23.2300 C   0  0  0  0  0  0  0  0  0  0  0  0
  1  2  1  0
  2  3  1  0
  3  4  1  0
  4  5  2  0
  4  6  1  0
  6  7  1  0
  7  8  1  0
  8 23  2  0
  8  9  1  0
  9 10  2  0
 10 11  1  0
 11 12  2  0
 12 13  1  0
 12 23  1  0
 13 14  1  0
 14 15  2  0
 14 16  1  0
 16 17  1  0
 17 18  2  0
 17 22  1  0
 18 19  1  0
 19 20  2  0
 20 21  1  0
 21 22  2  0
M  END
>  <original SMILES>  (674) 
CCNC(=O)CCc1cccc(NC(=O)Nc2cccnc2)c1

>  <AutoDock Predicted Affinity>  (674) 
-6.67832

>  <ref_pdb>  (674) 
x0434_0

>  <ref_mols>  (674) 
x0434_0

>  <creator>  (674) 
Will Poole

>  <energy minimised>  (674) 
True

$$$$
WPC2037_minimised.pdb
     RDKit          3D

 22 23  0  0  1  0  0  0  0  0999 V2000
    8.6760    5.6060   22.5490 C   0  0  0  0  0  0  0  0  0  0  0  0
   10.0040    5.3860   23.2770 C   0  0  0  0  0  0  0  0  0  0  0  0
   10.3550    3.9670   23.2410 N   0  0  0  0  0  0  0  0  0  0  0  0
   11.6440    3.6290   23.8550 C   0  0  2  0  0  0  0  0  0  0  0  0
   12.8050    4.0220   22.9220 C   0  0  0  0  0  0  0  0  0  0  0  0
   11.6890    2.1420   24.2900 C   0  0  0  0  0  0  0  0  0  0  0  0
   11.3450    1.0830   23.2610 C   0  0  0  0  0  0  0  0  0  0  0  0
   12.3530    0.2900   22.6810 C   0  0  0  0  0  0  0  0  0  0  0  0
   12.0120   -0.7890   21.8500 C   0  0  0  0  0  0  0  0  0  0  0  0
   10.6600   -1.0700   21.5970 C   0  0  0  0  0  0  0  0  0  0  0  0
    9.6580   -0.2630   22.1530 C   0  0  0  0  0  0  0  0  0  0  0  0
    8.3060   -0.4520   21.8160 N   0  0  0  0  0  0  0  0  0  0  0  0
    7.8150   -0.2270   20.5640 C   0  0  0  0  0  0  0  0  0  0  0  0
    8.5150   -0.0920   19.5800 O   0  0  0  0  0  0  0  0  0  0  0  0
    6.4540   -0.0940   20.5300 N   0  0  0  0  0  0  0  0  0  0  0  0
    5.7440    0.4980   19.4590 C   0  0  0  0  0  0  0  0  0  0  0  0
    4.8090    1.5010   19.7410 C   0  0  0  0  0  0  0  0  0  0  0  0
    4.2470    2.1900   18.6590 C   0  0  0  0  0  0  0  0  0  0  0  0
    4.6540    1.8800   17.3530 C   0  0  0  0  0  0  0  0  0  0  0  0
    5.5170    0.8790   17.0710 N   0  0  0  0  0  0  0  0  0  0  0  0
    6.0510    0.2100   18.1120 C   0  0  0  0  0  0  0  0  0  0  0  0
    9.9990    0.8010   22.9920 C   0  0  0  0  0  0  0  0  0  0  0  0
  1  2  1  0
  2  3  1  0
  3  4  1  0
  4  5  1  6
  4  6  1  0
  6  7  1  0
  7 22  2  0
  7  8  1  0
  8  9  2  0
  9 10  1  0
 10 11  2  0
 11 12  1  0
 11 22  1  0
 12 13  1  0
 13 14  2  0
 13 15  1  0
 15 16  1  0
 16 17  2  0
 16 21  1  0
 17 18  1  0
 18 19  2  0
 19 20  1  0
 20 21  2  0
M  END
>  <original SMILES>  (675) 
CCNC(C)Cc1cccc(NC(=O)Nc2cccnc2)c1

>  <AutoDock Predicted Affinity>  (675) 
-5.68052

>  <ref_pdb>  (675) 
x0434_0

>  <ref_mols>  (675) 
x0434_0

>  <creator>  (675) 
Will Poole

>  <energy minimised>  (675) 
True

$$$$
WPC1285_minimised.pdb
     RDKit          3D

 21 22  0  0  0  0  0  0  0  0999 V2000
   13.9450    5.5900   21.9840 C   0  0  0  0  0  0  0  0  0  0  0  0
   13.0350    5.0470   23.0940 C   0  0  0  0  0  0  0  0  0  0  0  0
   11.6150    5.1840   22.7360 N   0  0  0  0  0  0  0  0  0  0  0  0
   10.6190    4.7960   23.7520 C   0  0  0  0  0  0  0  0  0  0  0  0
   10.8960    3.4520   24.4680 C   0  0  0  0  0  0  0  0  0  0  0  0
   10.8440    2.1970   23.6090 C   0  0  0  0  0  0  0  0  0  0  0  0
   12.0150    1.4910   23.2710 C   0  0  0  0  0  0  0  0  0  0  0  0
   11.9420    0.3070   22.5170 C   0  0  0  0  0  0  0  0  0  0  0  0
   10.6920   -0.1890   22.1120 C   0  0  0  0  0  0  0  0  0  0  0  0
    9.5230    0.4960   22.4760 C   0  0  0  0  0  0  0  0  0  0  0  0
    8.2560    0.0460   22.0600 N   0  0  0  0  0  0  0  0  0  0  0  0
    7.8370    0.0630   20.7630 C   0  0  0  0  0  0  0  0  0  0  0  0
    8.5810    0.1720   19.8100 O   0  0  0  0  0  0  0  0  0  0  0  0
    6.4760    0.0350   20.6440 N   0  0  0  0  0  0  0  0  0  0  0  0
    5.7810    0.5480   19.5250 C   0  0  0  0  0  0  0  0  0  0  0  0
    4.8120    1.5360   19.7380 C   0  0  0  0  0  0  0  0  0  0  0  0
    4.2690    2.1670   18.6140 C   0  0  0  0  0  0  0  0  0  0  0  0
    4.7220    1.8150   17.3360 C   0  0  0  0  0  0  0  0  0  0  0  0
    5.6170    0.8250   17.1180 N   0  0  0  0  0  0  0  0  0  0  0  0
    6.1420    0.2160   18.2020 C   0  0  0  0  0  0  0  0  0  0  0  0
    9.5990    1.6820   23.2170 C   0  0  0  0  0  0  0  0  0  0  0  0
  1  2  1  0
  2  3  1  0
  3  4  1  0
  4  5  1  0
  5  6  1  0
  6 21  2  0
  6  7  1  0
  7  8  2  0
  8  9  1  0
  9 10  2  0
 10 11  1  0
 10 21  1  0
 11 12  1  0
 12 13  2  0
 12 14  1  0
 14 15  1  0
 15 16  2  0
 15 20  1  0
 16 17  1  0
 17 18  2  0
 18 19  1  0
 19 20  2  0
M  END
>  <original SMILES>  (676) 
CCNCCc1cccc(NC(=O)Nc2cccnc2)c1

>  <AutoDock Predicted Affinity>  (676) 
-5.58555

>  <ref_pdb>  (676) 
x0434_0

>  <ref_mols>  (676) 
x0434_0

>  <creator>  (676) 
Will Poole

>  <energy minimised>  (676) 
True

$$$$
WPC1647_minimised.pdb
     RDKit          3D

 24 25  0  0  1  0  0  0  0  0999 V2000
   13.8970    5.2440   21.5750 C   0  0  0  0  0  0  0  0  0  0  0  0
   13.9390    4.4250   22.8740 C   0  0  0  0  0  0  0  0  0  0  0  0
   12.6220    3.9570   23.2020 O   0  0  0  0  0  0  0  0  0  0  0  0
   11.6510    4.8160   23.6310 C   0  0  0  0  0  0  0  0  0  0  0  0
   11.8600    5.9840   23.9180 O   0  0  0  0  0  0  0  0  0  0  0  0
   10.3430    4.0840   24.0400 C   0  0  1  0  0  0  0  0  0  0  0  0
    9.2680    4.0520   23.0120 N   0  0  0  0  0  0  0  0  0  0  0  0
   10.6040    2.6760   24.6460 C   0  0  0  0  0  0  0  0  0  0  0  0
   10.7030    1.5100   23.6700 C   0  0  0  0  0  0  0  0  0  0  0  0
   11.9420    0.9680   23.2730 C   0  0  0  0  0  0  0  0  0  0  0  0
   11.9860   -0.1370   22.4040 C   0  0  0  0  0  0  0  0  0  0  0  0
   10.7910   -0.7130   21.9390 C   0  0  0  0  0  0  0  0  0  0  0  0
    9.5600   -0.1810   22.3490 C   0  0  0  0  0  0  0  0  0  0  0  0
    8.3410   -0.6600   21.8400 N   0  0  0  0  0  0  0  0  0  0  0  0
    7.8820   -0.3230   20.6010 C   0  0  0  0  0  0  0  0  0  0  0  0
    8.5900    0.0730   19.6980 O   0  0  0  0  0  0  0  0  0  0  0  0
    6.5200   -0.3740   20.5010 N   0  0  0  0  0  0  0  0  0  0  0  0
    5.8030    0.2780   19.4710 C   0  0  0  0  0  0  0  0  0  0  0  0
    4.8770    1.2750   19.8030 C   0  0  0  0  0  0  0  0  0  0  0  0
    4.3220    2.0210   18.7550 C   0  0  0  0  0  0  0  0  0  0  0  0
    4.7190    1.7630   17.4340 C   0  0  0  0  0  0  0  0  0  0  0  0
    5.5840    0.7770   17.1070 N   0  0  0  0  0  0  0  0  0  0  0  0
    6.1210    0.0630   18.1150 C   0  0  0  0  0  0  0  0  0  0  0  0
    9.5200    0.9200   23.2090 C   0  0  0  0  0  0  0  0  0  0  0  0
  1  2  1  0
  2  3  1  0
  3  4  1  0
  4  5  2  0
  4  6  1  0
  6  7  1  6
  6  8  1  0
  8  9  1  0
  9 24  2  0
  9 10  1  0
 10 11  2  0
 11 12  1  0
 12 13  2  0
 13 14  1  0
 13 24  1  0
 14 15  1  0
 15 16  2  0
 15 17  1  0
 17 18  1  0
 18 19  2  0
 18 23  1  0
 19 20  1  0
 20 21  2  0
 21 22  1  0
 22 23  2  0
M  END
>  <original SMILES>  (677) 
CCOC(=O)C(N)Cc1cccc(NC(=O)Nc2cccnc2)c1

>  <AutoDock Predicted Affinity>  (677) 
-5.245782

>  <ref_pdb>  (677) 
x0434_0

>  <ref_mols>  (677) 
x0434_0

>  <creator>  (677) 
Will Poole

>  <energy minimised>  (677) 
True

$$$$
WPC2051_minimised.pdb
     RDKit          3D

 24 25  0  0  0  0  0  0  0  0999 V2000
    9.7060    6.0210   23.0070 C   0  0  0  0  0  0  0  0  0  0  0  0
   10.7210    5.9240   24.1580 C   0  0  0  0  0  0  0  0  0  0  0  0
   11.4910    4.7360   23.9990 O   0  0  0  0  0  0  0  0  0  0  0  0
   12.5480    4.6980   23.1380 C   0  0  0  0  0  0  0  0  0  0  0  0
   13.0780    5.6710   22.6380 O   0  0  0  0  0  0  0  0  0  0  0  0
   13.1670    3.3580   23.1270 C   0  0  0  0  0  0  0  0  0  0  0  0
   12.6010    2.2890   23.7290 C   0  0  0  0  0  0  0  0  0  0  0  0
   13.2100    0.9140   23.7670 C   0  0  0  0  0  0  0  0  0  0  0  0
   12.4040   -0.0560   22.9370 C   0  0  0  0  0  0  0  0  0  0  0  0
   13.0620   -0.8710   22.0040 C   0  0  0  0  0  0  0  0  0  0  0  0
   12.3280   -1.7540   21.2110 C   0  0  0  0  0  0  0  0  0  0  0  0
   10.9360   -1.8360   21.3600 C   0  0  0  0  0  0  0  0  0  0  0  0
   10.2720   -1.0000   22.2580 C   0  0  0  0  0  0  0  0  0  0  0  0
    8.8710   -0.9010   22.1650 N   0  0  0  0  0  0  0  0  0  0  0  0
    8.2770   -0.1510   21.1870 C   0  0  0  0  0  0  0  0  0  0  0  0
    8.8950    0.5970   20.4550 O   0  0  0  0  0  0  0  0  0  0  0  0
    6.9310   -0.3430   21.0470 N   0  0  0  0  0  0  0  0  0  0  0  0
    6.1770    0.2310   19.9900 C   0  0  0  0  0  0  0  0  0  0  0  0
    5.2380    1.2350   20.2550 C   0  0  0  0  0  0  0  0  0  0  0  0
    4.6280    1.8620   19.1580 C   0  0  0  0  0  0  0  0  0  0  0  0
    4.9740    1.4760   17.8530 C   0  0  0  0  0  0  0  0  0  0  0  0
    5.8520    0.4820   17.5890 N   0  0  0  0  0  0  0  0  0  0  0  0
    6.4600   -0.0970   18.6450 C   0  0  0  0  0  0  0  0  0  0  0  0
   11.0030   -0.1230   23.0630 C   0  0  0  0  0  0  0  0  0  0  0  0
  1  2  1  0
  2  3  1  0
  3  4  1  0
  4  5  2  0
  4  6  1  0
  6  7  2  0
  7  8  1  0
  8  9  1  0
  9 24  2  0
  9 10  1  0
 10 11  2  0
 11 12  1  0
 12 13  2  0
 13 14  1  0
 13 24  1  0
 14 15  1  0
 15 16  2  0
 15 17  1  0
 17 18  1  0
 18 19  2  0
 18 23  1  0
 19 20  1  0
 20 21  2  0
 21 22  1  0
 22 23  2  0
M  END
>  <original SMILES>  (678) 
CCOC(=O)C=CCc1cccc(NC(=O)Nc2cccnc2)c1

>  <AutoDock Predicted Affinity>  (678) 
-5.783915

>  <ref_pdb>  (678) 
x0434_0

>  <ref_mols>  (678) 
x0434_0

>  <creator>  (678) 
Will Poole

>  <energy minimised>  (678) 
True

$$$$
WPC1702_minimised.pdb
     RDKit          3D

 24 25  0  0  0  0  0  0  0  0999 V2000
   12.9880    5.0050   23.5420 C   0  0  0  0  0  0  0  0  0  0  0  0
   11.8160    4.3730   22.7690 C   0  0  0  0  0  0  0  0  0  0  0  0
   11.5210    3.0670   23.3030 O   0  0  0  0  0  0  0  0  0  0  0  0
   10.8180    2.9550   24.4620 C   0  0  0  0  0  0  0  0  0  0  0  0
   10.4420    3.8930   25.1440 O   0  0  0  0  0  0  0  0  0  0  0  0
   10.5770    1.5330   24.7980 C   0  0  0  0  0  0  0  0  0  0  0  0
    9.9180    1.1480   25.9150 C   0  0  0  0  0  0  0  0  0  0  0  0
    9.6570   -0.5180   26.3460 S   0  0  0  0  0  0  0  0  0  0  0  0
    9.3490   -1.2680   24.7640 C   0  0  0  0  0  0  0  0  0  0  0  0
   10.1380   -2.3190   24.2720 C   0  0  0  0  0  0  0  0  0  0  0  0
    9.9330   -2.8060   22.9750 C   0  0  0  0  0  0  0  0  0  0  0  0
    8.9320   -2.2430   22.1690 C   0  0  0  0  0  0  0  0  0  0  0  0
    8.1120   -1.2260   22.6810 C   0  0  0  0  0  0  0  0  0  0  0  0
    7.0500   -0.6760   21.9450 N   0  0  0  0  0  0  0  0  0  0  0  0
    7.0570   -0.2460   20.6530 C   0  0  0  0  0  0  0  0  0  0  0  0
    7.9900   -0.3500   19.8810 O   0  0  0  0  0  0  0  0  0  0  0  0
    5.8500    0.3160   20.3490 N   0  0  0  0  0  0  0  0  0  0  0  0
    5.4470    0.9480   19.1530 C   0  0  0  0  0  0  0  0  0  0  0  0
    4.4440    1.9210   19.2330 C   0  0  0  0  0  0  0  0  0  0  0  0
    4.0790    2.5780   18.0540 C   0  0  0  0  0  0  0  0  0  0  0  0
    4.7430    2.2730   16.8610 C   0  0  0  0  0  0  0  0  0  0  0  0
    5.6790    1.3000   16.7620 N   0  0  0  0  0  0  0  0  0  0  0  0
    6.0240    0.6600   17.8980 C   0  0  0  0  0  0  0  0  0  0  0  0
    8.3190   -0.7430   23.9750 C   0  0  0  0  0  0  0  0  0  0  0  0
  1  2  1  0
  2  3  1  0
  3  4  1  0
  4  5  2  0
  4  6  1  0
  6  7  2  0
  7  8  1  0
  8  9  1  0
  9 24  2  0
  9 10  1  0
 10 11  2  0
 11 12  1  0
 12 13  2  0
 13 14  1  0
 13 24  1  0
 14 15  1  0
 15 16  2  0
 15 17  1  0
 17 18  1  0
 18 19  2  0
 18 23  1  0
 19 20  1  0
 20 21  2  0
 21 22  1  0
 22 23  2  0
M  END
>  <original SMILES>  (679) 
CCOC(=O)C=CSc1cccc(NC(=O)Nc2cccnc2)c1

>  <AutoDock Predicted Affinity>  (679) 
-5.10368

>  <ref_pdb>  (679) 
x0434_0

>  <ref_mols>  (679) 
x0434_0

>  <creator>  (679) 
Will Poole

>  <energy minimised>  (679) 
True

$$$$
WPC2213_minimised.pdb
     RDKit          3D

 24 25  0  0  0  0  0  0  0  0999 V2000
    9.0460    6.0820   23.1080 C   0  0  0  0  0  0  0  0  0  0  0  0
    9.1700    5.0560   21.9900 C   0  0  0  0  0  0  0  0  0  0  0  0
   10.0430    4.0020   22.4150 O   0  0  0  0  0  0  0  0  0  0  0  0
   11.3600    4.2320   22.7030 C   0  0  0  0  0  0  0  0  0  0  0  0
   11.8840    5.3240   22.8400 O   0  0  0  0  0  0  0  0  0  0  0  0
   12.0060    2.9440   23.1700 C   0  0  0  0  0  0  0  0  0  0  0  0
   11.3440    2.3980   24.4580 C   0  0  0  0  0  0  0  0  0  0  0  0
   11.7520    0.9400   24.7500 C   0  0  0  0  0  0  0  0  0  0  0  0
   11.3180    0.0230   23.6290 C   0  0  0  0  0  0  0  0  0  0  0  0
   12.2650   -0.5350   22.7520 C   0  0  0  0  0  0  0  0  0  0  0  0
   11.8440   -1.3680   21.7080 C   0  0  0  0  0  0  0  0  0  0  0  0
   10.4730   -1.5770   21.5020 C   0  0  0  0  0  0  0  0  0  0  0  0
    9.5270   -0.9300   22.3040 C   0  0  0  0  0  0  0  0  0  0  0  0
    8.1750   -0.8900   21.9140 N   0  0  0  0  0  0  0  0  0  0  0  0
    7.7690   -0.4280   20.6910 C   0  0  0  0  0  0  0  0  0  0  0  0
    8.5220   -0.2030   19.7620 O   0  0  0  0  0  0  0  0  0  0  0  0
    6.4230   -0.2030   20.6140 N   0  0  0  0  0  0  0  0  0  0  0  0
    5.7780    0.4480   19.5350 C   0  0  0  0  0  0  0  0  0  0  0  0
    4.8500    1.4610   19.8030 C   0  0  0  0  0  0  0  0  0  0  0  0
    4.3330    2.1750   18.7140 C   0  0  0  0  0  0  0  0  0  0  0  0
    4.7710    1.8750   17.4160 C   0  0  0  0  0  0  0  0  0  0  0  0
    5.6280    0.8660   17.1450 N   0  0  0  0  0  0  0  0  0  0  0  0
    6.1250    0.1790   18.1920 C   0  0  0  0  0  0  0  0  0  0  0  0
    9.9470   -0.1710   23.3980 C   0  0  0  0  0  0  0  0  0  0  0  0
  1  2  1  0
  2  3  1  0
  3  4  1  0
  4  5  2  0
  4  6  1  0
  6  7  1  0
  7  8  1  0
  8  9  1  0
  9 24  2  0
  9 10  1  0
 10 11  2  0
 11 12  1  0
 12 13  2  0
 13 14  1  0
 13 24  1  0
 14 15  1  0
 15 16  2  0
 15 17  1  0
 17 18  1  0
 18 19  2  0
 18 23  1  0
 19 20  1  0
 20 21  2  0
 21 22  1  0
 22 23  2  0
M  END
>  <original SMILES>  (680) 
CCOC(=O)CCCc1cccc(NC(=O)Nc2cccnc2)c1

>  <AutoDock Predicted Affinity>  (680) 
-5.32037

>  <ref_pdb>  (680) 
x0434_0

>  <ref_mols>  (680) 
x0434_0

>  <creator>  (680) 
Will Poole

>  <energy minimised>  (680) 
True

$$$$
WPC2191_minimised.pdb
     RDKit          3D

 24 25  0  0  0  0  0  0  0  0999 V2000
    8.3940    4.7370   21.8840 C   0  0  0  0  0  0  0  0  0  0  0  0
    8.7900    5.6680   23.0310 C   0  0  0  0  0  0  0  0  0  0  0  0
   10.1580    6.0840   22.9360 O   0  0  0  0  0  0  0  0  0  0  0  0
   11.0780    5.6410   23.8400 C   0  0  0  0  0  0  0  0  0  0  0  0
   11.8890    6.3950   24.3420 O   0  0  0  0  0  0  0  0  0  0  0  0
   11.2010    4.1250   23.9750 C   0  0  0  0  0  0  0  0  0  0  0  0
   12.1800    3.5490   22.9350 C   0  0  0  0  0  0  0  0  0  0  0  0
   12.9490    1.9970   23.5520 S   0  0  0  0  0  0  0  0  0  0  0  0
   12.0360    0.6450   22.8670 C   0  0  0  0  0  0  0  0  0  0  0  0
   12.7640   -0.4490   22.3860 C   0  0  0  0  0  0  0  0  0  0  0  0
   12.0930   -1.5720   21.8900 C   0  0  0  0  0  0  0  0  0  0  0  0
   10.6920   -1.5850   21.8360 C   0  0  0  0  0  0  0  0  0  0  0  0
    9.9650   -0.4750   22.2880 C   0  0  0  0  0  0  0  0  0  0  0  0
    8.5750   -0.4220   22.0820 N   0  0  0  0  0  0  0  0  0  0  0  0
    8.0310    0.0050   20.9050 C   0  0  0  0  0  0  0  0  0  0  0  0
    8.7030    0.3630   19.9600 O   0  0  0  0  0  0  0  0  0  0  0  0
    6.6630    0.0180   20.8650 N   0  0  0  0  0  0  0  0  0  0  0  0
    5.9260    0.5400   19.7740 C   0  0  0  0  0  0  0  0  0  0  0  0
    4.9710    1.5380   20.0010 C   0  0  0  0  0  0  0  0  0  0  0  0
    4.4060    2.1610   18.8800 C   0  0  0  0  0  0  0  0  0  0  0  0
    4.8140    1.7810   17.5930 C   0  0  0  0  0  0  0  0  0  0  0  0
    5.6880    0.7750   17.3640 N   0  0  0  0  0  0  0  0  0  0  0  0
    6.2400    0.1850   18.4430 C   0  0  0  0  0  0  0  0  0  0  0  0
   10.6340    0.6380   22.8160 C   0  0  0  0  0  0  0  0  0  0  0  0
  1  2  1  0
  2  3  1  0
  3  4  1  0
  4  5  2  0
  4  6  1  0
  6  7  1  0
  7  8  1  0
  8  9  1  0
  9 24  2  0
  9 10  1  0
 10 11  2  0
 11 12  1  0
 12 13  2  0
 13 14  1  0
 13 24  1  0
 14 15  1  0
 15 16  2  0
 15 17  1  0
 17 18  1  0
 18 19  2  0
 18 23  1  0
 19 20  1  0
 20 21  2  0
 21 22  1  0
 22 23  2  0
M  END
>  <original SMILES>  (681) 
CCOC(=O)CCSc1cccc(NC(=O)Nc2cccnc2)c1

>  <AutoDock Predicted Affinity>  (681) 
-4.9669

>  <ref_pdb>  (681) 
x0434_0

>  <ref_mols>  (681) 
x0434_0

>  <creator>  (681) 
Will Poole

>  <energy minimised>  (681) 
True

$$$$
WPC2668_minimised.pdb
     RDKit          3D

 23 24  0  0  0  0  0  0  0  0999 V2000
    6.7070    3.9080   21.9530 C   0  0  0  0  0  0  0  0  0  0  0  0
    7.8730    4.9010   22.0760 C   0  0  0  0  0  0  0  0  0  0  0  0
    8.8020    4.3340   23.0050 O   0  0  0  0  0  0  0  0  0  0  0  0
    9.8930    5.0600   23.3640 C   0  0  0  0  0  0  0  0  0  0  0  0
    9.9560    6.2770   23.2940 O   0  0  0  0  0  0  0  0  0  0  0  0
   10.7690    4.2530   24.3080 C   0  0  0  0  0  0  0  0  0  0  0  0
   12.1930    3.4800   23.4170 S   0  0  0  0  0  0  0  0  0  0  0  0
   11.7430    1.7940   23.0060 C   0  0  0  0  0  0  0  0  0  0  0  0
   12.7650    0.8590   22.7670 C   0  0  0  0  0  0  0  0  0  0  0  0
   12.4540   -0.4400   22.3280 C   0  0  0  0  0  0  0  0  0  0  0  0
   11.1130   -0.8200   22.1510 C   0  0  0  0  0  0  0  0  0  0  0  0
   10.0900    0.1040   22.4110 C   0  0  0  0  0  0  0  0  0  0  0  0
    8.7410   -0.2050   22.1390 N   0  0  0  0  0  0  0  0  0  0  0  0
    8.1750   -0.0170   20.9090 C   0  0  0  0  0  0  0  0  0  0  0  0
    8.8240    0.2070   19.9100 O   0  0  0  0  0  0  0  0  0  0  0  0
    6.8060   -0.0350   20.8890 N   0  0  0  0  0  0  0  0  0  0  0  0
    6.0390    0.4480   19.7970 C   0  0  0  0  0  0  0  0  0  0  0  0
    5.0740    1.4370   20.0270 C   0  0  0  0  0  0  0  0  0  0  0  0
    4.4810    2.0420   18.9120 C   0  0  0  0  0  0  0  0  0  0  0  0
    4.8610    1.6430   17.6220 C   0  0  0  0  0  0  0  0  0  0  0  0
    5.7430    0.6450   17.3900 N   0  0  0  0  0  0  0  0  0  0  0  0
    6.3290    0.0780   18.4640 C   0  0  0  0  0  0  0  0  0  0  0  0
   10.4060    1.4010   22.8330 C   0  0  0  0  0  0  0  0  0  0  0  0
  1  2  1  0
  2  3  1  0
  3  4  1  0
  4  5  2  0
  4  6  1  0
  6  7  1  0
  7  8  1  0
  8 23  2  0
  8  9  1  0
  9 10  2  0
 10 11  1  0
 11 12  2  0
 12 13  1  0
 12 23  1  0
 13 14  1  0
 14 15  2  0
 14 16  1  0
 16 17  1  0
 17 18  2  0
 17 22  1  0
 18 19  1  0
 19 20  2  0
 20 21  1  0
 21 22  2  0
M  END
>  <original SMILES>  (682) 
CCOC(=O)CSc1cccc(NC(=O)Nc2cccnc2)c1

>  <AutoDock Predicted Affinity>  (682) 
-5.058652

>  <ref_pdb>  (682) 
x0434_0

>  <ref_mols>  (682) 
x0434_0

>  <creator>  (682) 
Will Poole

>  <energy minimised>  (682) 
True

$$$$
WPC2168_minimised.pdb
     RDKit          3D

 22 23  0  0  0  0  0  0  0  0999 V2000
    9.8420    5.9380   23.2420 C   0  0  0  0  0  0  0  0  0  0  0  0
   10.9020    5.5800   24.3000 C   0  0  0  0  0  0  0  0  0  0  0  0
   11.2900    4.2040   24.1580 O   0  0  0  0  0  0  0  0  0  0  0  0
   12.1040    3.8280   23.1260 C   0  0  0  0  0  0  0  0  0  0  0  0
   12.7050    4.6390   22.4420 O   0  0  0  0  0  0  0  0  0  0  0  0
   12.6230    2.4140   23.3970 C   0  0  0  0  0  0  0  0  0  0  0  0
   11.9310    1.2670   22.6840 C   0  0  0  0  0  0  0  0  0  0  0  0
   12.7030    0.1790   22.2390 C   0  0  0  0  0  0  0  0  0  0  0  0
   12.0820   -0.9540   21.6970 C   0  0  0  0  0  0  0  0  0  0  0  0
   10.6840   -1.0060   21.6040 C   0  0  0  0  0  0  0  0  0  0  0  0
    9.9110    0.0810   22.0350 C   0  0  0  0  0  0  0  0  0  0  0  0
    8.5130    0.0600   21.8580 N   0  0  0  0  0  0  0  0  0  0  0  0
    7.9090    0.1090   20.6340 C   0  0  0  0  0  0  0  0  0  0  0  0
    8.5240    0.0770   19.5880 O   0  0  0  0  0  0  0  0  0  0  0  0
    6.5510    0.2610   20.6820 N   0  0  0  0  0  0  0  0  0  0  0  0
    5.7620    0.7060   19.5920 C   0  0  0  0  0  0  0  0  0  0  0  0
    4.8170    1.7140   19.8210 C   0  0  0  0  0  0  0  0  0  0  0  0
    4.1740    2.2680   18.7080 C   0  0  0  0  0  0  0  0  0  0  0  0
    4.5150    1.8290   17.4210 C   0  0  0  0  0  0  0  0  0  0  0  0
    5.3760    0.8120   17.1950 N   0  0  0  0  0  0  0  0  0  0  0  0
    5.9880    0.2710   18.2670 C   0  0  0  0  0  0  0  0  0  0  0  0
   10.5310    1.2160   22.5790 C   0  0  0  0  0  0  0  0  0  0  0  0
  1  2  1  0
  2  3  1  0
  3  4  1  0
  4  5  2  0
  4  6  1  0
  6  7  1  0
  7 22  2  0
  7  8  1  0
  8  9  2  0
  9 10  1  0
 10 11  2  0
 11 12  1  0
 11 22  1  0
 12 13  1  0
 13 14  2  0
 13 15  1  0
 15 16  1  0
 16 17  2  0
 16 21  1  0
 17 18  1  0
 18 19  2  0
 19 20  1  0
 20 21  2  0
M  END
>  <original SMILES>  (683) 
CCOC(=O)Cc1cccc(NC(=O)Nc2cccnc2)c1

>  <AutoDock Predicted Affinity>  (683) 
-5.61505

>  <ref_pdb>  (683) 
x0434_0

>  <ref_mols>  (683) 
x0434_0

>  <creator>  (683) 
Will Poole

>  <energy minimised>  (683) 
True

$$$$
WPC1692_minimised.pdb
     RDKit          3D

 24 25  0  0  1  0  0  0  0  0999 V2000
    7.6810    4.3020   22.1680 C   0  0  0  0  0  0  0  0  0  0  0  0
    8.9340    4.8040   22.9000 C   0  0  0  0  0  0  0  0  0  0  0  0
    9.7640    3.6450   23.0560 O   0  0  0  0  0  0  0  0  0  0  0  0
   10.8920    3.7310   23.9530 C   0  0  1  0  0  0  0  0  0  0  0  0
   11.2940    2.2970   24.3950 C   0  0  0  0  0  0  0  0  0  0  0  0
   11.0880    1.1640   23.4050 C   0  0  0  0  0  0  0  0  0  0  0  0
   12.1810    0.4770   22.8430 C   0  0  0  0  0  0  0  0  0  0  0  0
   11.9620   -0.6230   21.9960 C   0  0  0  0  0  0  0  0  0  0  0  0
   10.6500   -1.0260   21.6990 C   0  0  0  0  0  0  0  0  0  0  0  0
    9.5640   -0.3280   22.2420 C   0  0  0  0  0  0  0  0  0  0  0  0
    8.2450   -0.5900   21.8310 N   0  0  0  0  0  0  0  0  0  0  0  0
    7.7830   -0.2310   20.5970 C   0  0  0  0  0  0  0  0  0  0  0  0
    8.5000    0.0460   19.6560 O   0  0  0  0  0  0  0  0  0  0  0  0
    6.4220   -0.1320   20.5340 N   0  0  0  0  0  0  0  0  0  0  0  0
    5.7320    0.4980   19.4720 C   0  0  0  0  0  0  0  0  0  0  0  0
    4.7990    1.5040   19.7590 C   0  0  0  0  0  0  0  0  0  0  0  0
    4.2510    2.2090   18.6790 C   0  0  0  0  0  0  0  0  0  0  0  0
    4.6640    1.9090   17.3720 C   0  0  0  0  0  0  0  0  0  0  0  0
    5.5340    0.9140   17.0870 N   0  0  0  0  0  0  0  0  0  0  0  0
    6.0590    0.2340   18.1250 C   0  0  0  0  0  0  0  0  0  0  0  0
    9.7840    0.7400   23.1130 C   0  0  0  0  0  0  0  0  0  0  0  0
   12.0950    4.5220   23.4040 C   0  0  0  0  0  0  0  0  0  0  0  0
   12.9700    4.9450   24.1360 O   0  0  0  0  0  0  0  0  0  0  0  0
   12.0310    4.9100   22.1190 O   0  0  0  0  0  0  0  0  0  0  0  0
  1  2  1  0
  2  3  1  0
  3  4  1  0
  4 22  1  0
  4  5  1  6
  5  6  1  0
  6 21  2  0
  6  7  1  0
  7  8  2  0
  8  9  1  0
  9 10  2  0
 10 11  1  0
 10 21  1  0
 11 12  1  0
 12 13  2  0
 12 14  1  0
 14 15  1  0
 15 16  2  0
 15 20  1  0
 16 17  1  0
 17 18  2  0
 18 19  1  0
 19 20  2  0
 22 23  2  0
 22 24  1  0
M  END
>  <original SMILES>  (684) 
CCOC(Cc1cccc(NC(=O)Nc2cccnc2)c1)C(=O)O

>  <AutoDock Predicted Affinity>  (684) 
-5.750818

>  <ref_pdb>  (684) 
x0434_0

>  <ref_mols>  (684) 
x0434_0

>  <creator>  (684) 
Will Poole

>  <energy minimised>  (684) 
True

$$$$
WPC2675_minimised.pdb
     RDKit          3D

 24 25  0  0  0  0  0  0  0  0999 V2000
    6.6870    3.3040   22.0270 C   0  0  0  0  0  0  0  0  0  0  0  0
    7.5900    4.5390   21.9760 C   0  0  0  0  0  0  0  0  0  0  0  0
    8.5990    4.3970   22.9790 O   0  0  0  0  0  0  0  0  0  0  0  0
    9.5600    5.4790   22.9990 C   0  0  0  0  0  0  0  0  0  0  0  0
   10.9070    4.9790   23.5110 C   0  0  0  0  0  0  0  0  0  0  0  0
   11.4260    5.4070   24.5260 O   0  0  0  0  0  0  0  0  0  0  0  0
   11.4360    3.9340   22.7950 N   0  0  0  0  0  0  0  0  0  0  0  0
   12.1340    2.8240   23.4430 C   0  0  0  0  0  0  0  0  0  0  0  0
   11.7200    1.4640   22.9010 C   0  0  0  0  0  0  0  0  0  0  0  0
   12.6950    0.5110   22.5530 C   0  0  0  0  0  0  0  0  0  0  0  0
   12.3130   -0.7340   22.0270 C   0  0  0  0  0  0  0  0  0  0  0  0
   10.9530   -1.0340   21.8540 C   0  0  0  0  0  0  0  0  0  0  0  0
    9.9760   -0.0920   22.2110 C   0  0  0  0  0  0  0  0  0  0  0  0
    8.6130   -0.3430   21.9480 N   0  0  0  0  0  0  0  0  0  0  0  0
    8.0460   -0.1570   20.7190 C   0  0  0  0  0  0  0  0  0  0  0  0
    8.6950    0.0990   19.7250 O   0  0  0  0  0  0  0  0  0  0  0  0
    6.6760   -0.2100   20.6970 N   0  0  0  0  0  0  0  0  0  0  0  0
    5.9010    0.3140   19.6310 C   0  0  0  0  0  0  0  0  0  0  0  0
    4.9090    1.2610   19.9150 C   0  0  0  0  0  0  0  0  0  0  0  0
    4.3340    1.9510   18.8390 C   0  0  0  0  0  0  0  0  0  0  0  0
    4.7470    1.6590   17.5310 C   0  0  0  0  0  0  0  0  0  0  0  0
    5.6450    0.6920   17.2420 N   0  0  0  0  0  0  0  0  0  0  0  0
    6.2170    0.0480   18.2800 C   0  0  0  0  0  0  0  0  0  0  0  0
   10.3580    1.1500   22.7380 C   0  0  0  0  0  0  0  0  0  0  0  0
  1  2  1  0
  2  3  1  0
  3  4  1  0
  4  5  1  0
  5  6  2  0
  5  7  1  0
  7  8  1  0
  8  9  1  0
  9 24  2  0
  9 10  1  0
 10 11  2  0
 11 12  1  0
 12 13  2  0
 13 14  1  0
 13 24  1  0
 14 15  1  0
 15 16  2  0
 15 17  1  0
 17 18  1  0
 18 19  2  0
 18 23  1  0
 19 20  1  0
 20 21  2  0
 21 22  1  0
 22 23  2  0
M  END
>  <original SMILES>  (685) 
CCOCC(=O)NCc1cccc(NC(=O)Nc2cccnc2)c1

>  <AutoDock Predicted Affinity>  (685) 
-6.01121

>  <ref_pdb>  (685) 
x0434_0

>  <ref_mols>  (685) 
x0434_0

>  <creator>  (685) 
Will Poole

>  <energy minimised>  (685) 
True

$$$$
WPC1605_minimised.pdb
     RDKit          3D

 24 25  0  0  0  0  0  0  0  0999 V2000
   12.6250    9.5950   25.9390 C   0  0  0  0  0  0  0  0  0  0  0  0
   12.7490    8.0540   25.9990 C   0  0  0  0  0  0  0  0  0  0  0  0
   12.7200    7.4480   24.6950 O   0  0  0  0  0  0  0  0  0  0  0  0
   12.5400    6.0190   24.7530 C   0  0  0  0  0  0  0  0  0  0  0  0
   12.3740    5.4270   23.3380 C   0  0  0  0  0  0  0  0  0  0  0  0
   12.4350    3.8880   23.3360 C   0  0  0  0  0  0  0  0  0  0  0  0
   11.4540    3.3420   24.2830 N   0  0  0  0  0  0  0  0  0  0  0  0
   11.6380    1.9270   24.6400 C   0  0  0  0  0  0  0  0  0  0  0  0
   11.2920    0.9500   23.5400 C   0  0  0  0  0  0  0  0  0  0  0  0
   12.3060    0.2630   22.8480 C   0  0  0  0  0  0  0  0  0  0  0  0
   11.9720   -0.7300   21.9150 C   0  0  0  0  0  0  0  0  0  0  0  0
   10.6210   -1.0150   21.6600 C   0  0  0  0  0  0  0  0  0  0  0  0
    9.6110   -0.2960   22.3140 C   0  0  0  0  0  0  0  0  0  0  0  0
    8.2610   -0.4710   21.9570 N   0  0  0  0  0  0  0  0  0  0  0  0
    7.7810   -0.2060   20.7050 C   0  0  0  0  0  0  0  0  0  0  0  0
    8.4920    0.0000   19.7410 O   0  0  0  0  0  0  0  0  0  0  0  0
    6.4170   -0.1320   20.6460 N   0  0  0  0  0  0  0  0  0  0  0  0
    5.7070    0.4460   19.5670 C   0  0  0  0  0  0  0  0  0  0  0  0
    4.7610    1.4420   19.8370 C   0  0  0  0  0  0  0  0  0  0  0  0
    4.2030    2.1220   18.7470 C   0  0  0  0  0  0  0  0  0  0  0  0
    4.6130    1.7990   17.4450 C   0  0  0  0  0  0  0  0  0  0  0  0
    5.4860    0.8020   17.1740 N   0  0  0  0  0  0  0  0  0  0  0  0
    6.0260    0.1520   18.2230 C   0  0  0  0  0  0  0  0  0  0  0  0
    9.9450    0.6730   23.2650 C   0  0  0  0  0  0  0  0  0  0  0  0
  1  2  1  0
  2  3  1  0
  3  4  1  0
  4  5  1  0
  5  6  1  0
  6  7  1  0
  7  8  1  0
  8  9  1  0
  9 24  2  0
  9 10  1  0
 10 11  2  0
 11 12  1  0
 12 13  2  0
 13 14  1  0
 13 24  1  0
 14 15  1  0
 15 16  2  0
 15 17  1  0
 17 18  1  0
 18 19  2  0
 18 23  1  0
 19 20  1  0
 20 21  2  0
 21 22  1  0
 22 23  2  0
M  END
>  <original SMILES>  (686) 
CCOCCCNCc1cccc(NC(=O)Nc2cccnc2)c1

>  <AutoDock Predicted Affinity>  (686) 
-5.10312

>  <ref_pdb>  (686) 
x0434_0

>  <ref_mols>  (686) 
x0434_0

>  <creator>  (686) 
Will Poole

>  <energy minimised>  (686) 
True

$$$$
WPC1332_minimised.pdb
     RDKit          3D

 21 22  0  0  0  0  0  0  0  0999 V2000
   13.7560    5.3060   21.5190 C   0  0  0  0  0  0  0  0  0  0  0  0
   13.7580    5.0210   23.0280 C   0  0  0  0  0  0  0  0  0  0  0  0
   13.0090    3.8390   23.3480 O   0  0  0  0  0  0  0  0  0  0  0  0
   11.5800    3.9610   23.2570 C   0  0  0  0  0  0  0  0  0  0  0  0
   10.9430    2.8320   24.0840 C   0  0  0  0  0  0  0  0  0  0  0  0
   10.9210    1.4950   23.3630 C   0  0  0  0  0  0  0  0  0  0  0  0
   12.1050    0.7920   23.0690 C   0  0  0  0  0  0  0  0  0  0  0  0
   12.0480   -0.4230   22.3640 C   0  0  0  0  0  0  0  0  0  0  0  0
   10.8070   -0.9490   21.9690 C   0  0  0  0  0  0  0  0  0  0  0  0
    9.6290   -0.2550   22.2770 C   0  0  0  0  0  0  0  0  0  0  0  0
    8.3740   -0.6910   21.8190 N   0  0  0  0  0  0  0  0  0  0  0  0
    7.8820   -0.3420   20.5950 C   0  0  0  0  0  0  0  0  0  0  0  0
    8.5690    0.0540   19.6770 O   0  0  0  0  0  0  0  0  0  0  0  0
    6.5180   -0.3860   20.5210 N   0  0  0  0  0  0  0  0  0  0  0  0
    5.7890    0.2550   19.4930 C   0  0  0  0  0  0  0  0  0  0  0  0
    4.8680    1.2580   19.8240 C   0  0  0  0  0  0  0  0  0  0  0  0
    4.3050    1.9960   18.7750 C   0  0  0  0  0  0  0  0  0  0  0  0
    4.6870    1.7250   17.4520 C   0  0  0  0  0  0  0  0  0  0  0  0
    5.5470    0.7340   17.1250 N   0  0  0  0  0  0  0  0  0  0  0  0
    6.0920    0.0280   18.1350 C   0  0  0  0  0  0  0  0  0  0  0  0
    9.6880    0.9610   22.9660 C   0  0  0  0  0  0  0  0  0  0  0  0
  1  2  1  0
  2  3  1  0
  3  4  1  0
  4  5  1  0
  5  6  1  0
  6 21  2  0
  6  7  1  0
  7  8  2  0
  8  9  1  0
  9 10  2  0
 10 11  1  0
 10 21  1  0
 11 12  1  0
 12 13  2  0
 12 14  1  0
 14 15  1  0
 15 16  2  0
 15 20  1  0
 16 17  1  0
 17 18  2  0
 18 19  1  0
 19 20  2  0
M  END
>  <original SMILES>  (687) 
CCOCCc1cccc(NC(=O)Nc2cccnc2)c1

>  <AutoDock Predicted Affinity>  (687) 
-5.417553

>  <ref_pdb>  (687) 
x0434_0

>  <ref_mols>  (687) 
x0434_0

>  <creator>  (687) 
Will Poole

>  <energy minimised>  (687) 
True

$$$$
WPC1365_minimised.pdb
     RDKit          3D

 23 24  0  0  0  0  0  0  0  0999 V2000
    9.2380    5.5200   22.6610 C   0  0  0  0  0  0  0  0  0  0  0  0
    9.5210    4.0390   23.0030 C   0  0  0  0  0  0  0  0  0  0  0  0
   11.0760    3.7820   23.9330 P   0  0  0  0  0  0  0  0  0  0  0  0
   11.2060    4.7810   25.0180 O   0  0  0  0  0  0  0  0  0  0  0  0
   12.5760    3.7340   22.8900 C   0  0  0  0  0  0  0  0  0  0  0  0
   13.1800    5.1050   22.5410 C   0  0  0  0  0  0  0  0  0  0  0  0
   11.0210    2.1080   24.6440 C   0  0  0  0  0  0  0  0  0  0  0  0
   10.8580    0.9840   23.6460 C   0  0  0  0  0  0  0  0  0  0  0  0
   11.9810    0.3450   23.0890 C   0  0  0  0  0  0  0  0  0  0  0  0
   11.8120   -0.6890   22.1520 C   0  0  0  0  0  0  0  0  0  0  0  0
   10.5190   -1.0710   21.7650 C   0  0  0  0  0  0  0  0  0  0  0  0
    9.4030   -0.4230   22.3140 C   0  0  0  0  0  0  0  0  0  0  0  0
    8.1110   -0.6640   21.8220 N   0  0  0  0  0  0  0  0  0  0  0  0
    7.7210   -0.2760   20.5740 C   0  0  0  0  0  0  0  0  0  0  0  0
    8.4910    0.0400   19.6880 O   0  0  0  0  0  0  0  0  0  0  0  0
    6.3640   -0.1940   20.4440 N   0  0  0  0  0  0  0  0  0  0  0  0
    5.7140    0.4650   19.3760 C   0  0  0  0  0  0  0  0  0  0  0  0
    4.7630    1.4540   19.6580 C   0  0  0  0  0  0  0  0  0  0  0  0
    4.2570    2.1930   18.5810 C   0  0  0  0  0  0  0  0  0  0  0  0
    4.7300    1.9420   17.2850 C   0  0  0  0  0  0  0  0  0  0  0  0
    5.6150    0.9600   17.0030 N   0  0  0  0  0  0  0  0  0  0  0  0
    6.0980    0.2460   18.0370 C   0  0  0  0  0  0  0  0  0  0  0  0
    9.5720    0.5880   23.2650 C   0  0  0  0  0  0  0  0  0  0  0  0
  1  2  1  0
  2  3  1  0
  3  4  2  0
  3  5  1  0
  3  7  1  0
  5  6  1  0
  7  8  1  0
  8 23  2  0
  8  9  1  0
  9 10  2  0
 10 11  1  0
 11 12  2  0
 12 13  1  0
 12 23  1  0
 13 14  1  0
 14 15  2  0
 14 16  1  0
 16 17  1  0
 17 18  2  0
 17 22  1  0
 18 19  1  0
 19 20  2  0
 20 21  1  0
 21 22  2  0
M  END
>  <original SMILES>  (688) 
CCP(=O)(CC)Cc1cccc(NC(=O)Nc2cccnc2)c1

>  <AutoDock Predicted Affinity>  (688) 
-5.712286

>  <ref_pdb>  (688) 
x0434_0

>  <ref_mols>  (688) 
x0434_0

>  <creator>  (688) 
Will Poole

>  <energy minimised>  (688) 
True

$$$$
WPC1313_minimised.pdb
     RDKit          3D

 24 25  0  0  0  0  0  0  0  0999 V2000
   12.5470    6.8850   24.9670 C   0  0  0  0  0  0  0  0  0  0  0  0
   11.7220    5.8510   24.1670 C   0  0  0  0  0  0  0  0  0  0  0  0
   12.7470    4.8030   23.1130 S   0  0  0  0  0  0  0  0  0  0  0  0
   13.9530    4.5040   23.8520 O   0  0  0  0  0  0  0  0  0  0  0  0
   12.8530    5.4230   21.8140 O   0  0  0  0  0  0  0  0  0  0  0  0
   11.7820    3.2990   23.0120 C   0  0  0  0  0  0  0  0  0  0  0  0
   11.7470    2.5600   24.3640 C   0  0  0  0  0  0  0  0  0  0  0  0
   10.0480    2.1250   24.8650 S   0  0  0  0  0  0  0  0  0  0  0  0
    9.8250    0.5100   24.1760 C   0  0  0  0  0  0  0  0  0  0  0  0
   10.5550   -0.5930   24.6450 C   0  0  0  0  0  0  0  0  0  0  0  0
   10.3230   -1.8710   24.1020 C   0  0  0  0  0  0  0  0  0  0  0  0
    9.3340   -2.0440   23.1190 C   0  0  0  0  0  0  0  0  0  0  0  0
    8.6000   -0.9360   22.6740 C   0  0  0  0  0  0  0  0  0  0  0  0
    7.5190   -1.0820   21.7970 N   0  0  0  0  0  0  0  0  0  0  0  0
    7.3950   -0.4340   20.6040 C   0  0  0  0  0  0  0  0  0  0  0  0
    8.3150    0.0170   19.9490 O   0  0  0  0  0  0  0  0  0  0  0  0
    6.0780   -0.2960   20.2690 N   0  0  0  0  0  0  0  0  0  0  0  0
    5.5780    0.4730   19.1990 C   0  0  0  0  0  0  0  0  0  0  0  0
    4.5760    1.4210   19.4400 C   0  0  0  0  0  0  0  0  0  0  0  0
    4.1620    2.2150   18.3640 C   0  0  0  0  0  0  0  0  0  0  0  0
    4.7630    2.0470   17.1080 C   0  0  0  0  0  0  0  0  0  0  0  0
    5.7090    1.1110   16.8630 N   0  0  0  0  0  0  0  0  0  0  0  0
    6.1170    0.3580   17.9030 C   0  0  0  0  0  0  0  0  0  0  0  0
    8.8540    0.3380   23.1910 C   0  0  0  0  0  0  0  0  0  0  0  0
  1  2  1  0
  2  3  1  0
  3  4  2  0
  3  5  2  0
  3  6  1  0
  6  7  1  0
  7  8  1  0
  8  9  1  0
  9 24  2  0
  9 10  1  0
 10 11  2  0
 11 12  1  0
 12 13  2  0
 13 14  1  0
 13 24  1  0
 14 15  1  0
 15 16  2  0
 15 17  1  0
 17 18  1  0
 18 19  2  0
 18 23  1  0
 19 20  1  0
 20 21  2  0
 21 22  1  0
 22 23  2  0
M  END
>  <original SMILES>  (689) 
CCS(=O)(=O)CCSc1cccc(NC(=O)Nc2cccnc2)c1

>  <AutoDock Predicted Affinity>  (689) 
-3.872038

>  <ref_pdb>  (689) 
x0434_0

>  <ref_mols>  (689) 
x0434_0

>  <creator>  (689) 
Will Poole

>  <energy minimised>  (689) 
True

$$$$
WPC1077_minimised.pdb
     RDKit          3D

 24 25  0  0  0  0  0  0  0  0999 V2000
   12.5610    7.1150   25.4190 C   0  0  0  0  0  0  0  0  0  0  0  0
   11.8500    5.7600   25.2060 C   0  0  0  0  0  0  0  0  0  0  0  0
   11.0290    5.5960   23.6270 S   0  0  0  0  0  0  0  0  0  0  0  0
   12.0420    5.3880   22.6270 O   0  0  0  0  0  0  0  0  0  0  0  0
   10.0260    6.6280   23.5650 O   0  0  0  0  0  0  0  0  0  0  0  0
   10.2090    4.1900   23.7030 N   0  0  0  0  0  0  0  0  0  0  0  0
   10.8000    3.0100   24.3590 C   0  0  0  0  0  0  0  0  0  0  0  0
   11.8590    2.2820   23.4940 C   0  0  0  0  0  0  0  0  0  0  0  0
   11.3670    1.0000   22.8370 C   0  0  0  0  0  0  0  0  0  0  0  0
   12.2920   -0.0140   22.5310 C   0  0  0  0  0  0  0  0  0  0  0  0
   11.8590   -1.2250   21.9680 C   0  0  0  0  0  0  0  0  0  0  0  0
   10.4950   -1.4240   21.7010 C   0  0  0  0  0  0  0  0  0  0  0  0
    9.5770   -0.4040   21.9750 C   0  0  0  0  0  0  0  0  0  0  0  0
    8.2180   -0.5410   21.6510 N   0  0  0  0  0  0  0  0  0  0  0  0
    7.7260   -0.2910   20.4070 C   0  0  0  0  0  0  0  0  0  0  0  0
    8.4220   -0.1970   19.4170 O   0  0  0  0  0  0  0  0  0  0  0  0
    6.3760   -0.0830   20.3940 N   0  0  0  0  0  0  0  0  0  0  0  0
    5.6690    0.5290   19.3340 C   0  0  0  0  0  0  0  0  0  0  0  0
    4.7340    1.5290   19.6290 C   0  0  0  0  0  0  0  0  0  0  0  0
    4.1560    2.2180   18.5550 C   0  0  0  0  0  0  0  0  0  0  0  0
    4.5540    1.9170   17.2450 C   0  0  0  0  0  0  0  0  0  0  0  0
    5.4180    0.9210   16.9510 N   0  0  0  0  0  0  0  0  0  0  0  0
    5.9600    0.2450   17.9820 C   0  0  0  0  0  0  0  0  0  0  0  0
   10.0100    0.8070   22.5230 C   0  0  0  0  0  0  0  0  0  0  0  0
  1  2  1  0
  2  3  1  0
  3  4  2  0
  3  5  2  0
  3  6  1  0
  6  7  1  0
  7  8  1  0
  8  9  1  0
  9 24  2  0
  9 10  1  0
 10 11  2  0
 11 12  1  0
 12 13  2  0
 13 14  1  0
 13 24  1  0
 14 15  1  0
 15 16  2  0
 15 17  1  0
 17 18  1  0
 18 19  2  0
 18 23  1  0
 19 20  1  0
 20 21  2  0
 21 22  1  0
 22 23  2  0
M  END
>  <original SMILES>  (690) 
CCS(=O)(=O)NCCc1cccc(NC(=O)Nc2cccnc2)c1

>  <AutoDock Predicted Affinity>  (690) 
-5.66345

>  <ref_pdb>  (690) 
x0434_0

>  <ref_mols>  (690) 
x0434_0

>  <creator>  (690) 
Will Poole

>  <energy minimised>  (690) 
True

$$$$
WPC1629_minimised.pdb
     RDKit          3D

 24 25  0  0  0  0  0  0  0  0999 V2000
    5.7560    3.9160   21.9390 C   0  0  0  0  0  0  0  0  0  0  0  0
    6.9460    3.0810   22.4420 C   0  0  0  0  0  0  0  0  0  0  0  0
    8.3850    4.1780   22.7750 S   0  0  0  0  0  0  0  0  0  0  0  0
    9.4880    3.0910   23.5240 C   0  0  0  0  0  0  0  0  0  0  0  0
    9.1720    2.1100   24.2920 N   0  0  0  0  0  0  0  0  0  0  0  0
   10.1450    1.3320   25.0750 C   0  0  0  0  0  0  0  0  0  0  0  0
   10.7130    3.4320   22.9890 N   0  0  0  0  0  0  0  0  0  0  0  0
   11.9660    2.6600   22.8790 C   0  0  0  0  0  0  0  0  0  0  0  0
   11.8320    1.2060   22.4110 C   0  0  0  0  0  0  0  0  0  0  0  0
   12.9130    0.3160   22.5630 C   0  0  0  0  0  0  0  0  0  0  0  0
   12.7430   -1.0560   22.3060 C   0  0  0  0  0  0  0  0  0  0  0  0
   11.4770   -1.5570   21.9630 C   0  0  0  0  0  0  0  0  0  0  0  0
   10.4160   -0.6740   21.7400 C   0  0  0  0  0  0  0  0  0  0  0  0
    9.1240   -1.1450   21.4070 N   0  0  0  0  0  0  0  0  0  0  0  0
    8.3130   -0.5430   20.4850 C   0  0  0  0  0  0  0  0  0  0  0  0
    8.7080    0.3100   19.7190 O   0  0  0  0  0  0  0  0  0  0  0  0
    6.9960   -0.9130   20.4820 N   0  0  0  0  0  0  0  0  0  0  0  0
    6.0830   -0.2720   19.6090 C   0  0  0  0  0  0  0  0  0  0  0  0
    5.2680    0.7650   20.0850 C   0  0  0  0  0  0  0  0  0  0  0  0
    4.6050    1.5650   19.1390 C   0  0  0  0  0  0  0  0  0  0  0  0
    4.7770    1.3030   17.7710 C   0  0  0  0  0  0  0  0  0  0  0  0
    5.5280    0.2790   17.3110 N   0  0  0  0  0  0  0  0  0  0  0  0
    6.1800   -0.4730   18.2180 C   0  0  0  0  0  0  0  0  0  0  0  0
   10.6200    0.7020   21.9090 C   0  0  0  0  0  0  0  0  0  0  0  0
  1  2  1  0
  2  3  1  0
  3  4  1  0
  4  5  2  0
  4  7  1  0
  5  6  1  0
  7  8  1  0
  8  9  1  0
  9 24  2  0
  9 10  1  0
 10 11  2  0
 11 12  1  0
 12 13  2  0
 13 14  1  0
 13 24  1  0
 14 15  1  0
 15 16  2  0
 15 17  1  0
 17 18  1  0
 18 19  2  0
 18 23  1  0
 19 20  1  0
 20 21  2  0
 21 22  1  0
 22 23  2  0
M  END
>  <original SMILES>  (691) 
CCSC(=NC)NCc1cccc(NC(=O)Nc2cccnc2)c1

>  <AutoDock Predicted Affinity>  (691) 
-5.62148

>  <ref_pdb>  (691) 
x0434_0

>  <ref_mols>  (691) 
x0434_0

>  <creator>  (691) 
Will Poole

>  <energy minimised>  (691) 
True

$$$$
WPC1257_minimised.pdb
     RDKit          3D

 19 20  0  0  0  0  0  0  0  0999 V2000
   12.4320    5.7920   23.9980 C   0  0  0  0  0  0  0  0  0  0  0  0
   12.2580    4.4150   23.3370 C   0  0  0  0  0  0  0  0  0  0  0  0
   11.1500    3.3790   24.3730 S   0  0  0  0  0  0  0  0  0  0  0  0
   11.1000    1.8270   23.5080 C   0  0  0  0  0  0  0  0  0  0  0  0
   12.2720    1.1550   23.1200 C   0  0  0  0  0  0  0  0  0  0  0  0
   12.1840   -0.0420   22.3880 C   0  0  0  0  0  0  0  0  0  0  0  0
   10.9240   -0.5710   22.0570 C   0  0  0  0  0  0  0  0  0  0  0  0
    9.7580    0.0950   22.4640 C   0  0  0  0  0  0  0  0  0  0  0  0
    8.4820   -0.3500   22.0690 N   0  0  0  0  0  0  0  0  0  0  0  0
    7.9820   -0.1380   20.8170 C   0  0  0  0  0  0  0  0  0  0  0  0
    8.6650    0.1660   19.8610 O   0  0  0  0  0  0  0  0  0  0  0  0
    6.6170   -0.2080   20.7430 N   0  0  0  0  0  0  0  0  0  0  0  0
    5.8810    0.3410   19.6670 C   0  0  0  0  0  0  0  0  0  0  0  0
    4.9360    1.3410   19.9310 C   0  0  0  0  0  0  0  0  0  0  0  0
    4.3620    2.0010   18.8370 C   0  0  0  0  0  0  0  0  0  0  0  0
    4.7550    1.6560   17.5350 C   0  0  0  0  0  0  0  0  0  0  0  0
    5.6320    0.6620   17.2700 N   0  0  0  0  0  0  0  0  0  0  0  0
    6.1900    0.0330   18.3240 C   0  0  0  0  0  0  0  0  0  0  0  0
    9.8490    1.2890   23.1890 C   0  0  0  0  0  0  0  0  0  0  0  0
  1  2  1  0
  2  3  1  0
  3  4  1  0
  4 19  2  0
  4  5  1  0
  5  6  2  0
  6  7  1  0
  7  8  2  0
  8  9  1  0
  8 19  1  0
  9 10  1  0
 10 11  2  0
 10 12  1  0
 12 13  1  0
 13 14  2  0
 13 18  1  0
 14 15  1  0
 15 16  2  0
 16 17  1  0
 17 18  2  0
M  END
>  <original SMILES>  (692) 
CCSc1cccc(NC(=O)Nc2cccnc2)c1

>  <AutoDock Predicted Affinity>  (692) 
-5.42087

>  <ref_pdb>  (692) 
x0434_0

>  <ref_mols>  (692) 
x0434_0

>  <creator>  (692) 
Will Poole

>  <energy minimised>  (692) 
True

$$$$
WPC2462_minimised.pdb
     RDKit          3D

 18 19  0  0  0  0  0  0  0  0999 V2000
   11.5890    3.8510   22.9750 C   0  0  0  0  0  0  0  0  0  0  0  0
   12.1000    2.5420   23.6090 C   0  0  0  0  0  0  0  0  0  0  0  0
   11.6250    1.2680   22.9290 C   0  0  0  0  0  0  0  0  0  0  0  0
   12.5550    0.3100   22.4840 C   0  0  0  0  0  0  0  0  0  0  0  0
   12.1160   -0.8780   21.8780 C   0  0  0  0  0  0  0  0  0  0  0  0
   10.7420   -1.1090   21.7100 C   0  0  0  0  0  0  0  0  0  0  0  0
    9.8130   -0.1560   22.1480 C   0  0  0  0  0  0  0  0  0  0  0  0
    8.4400   -0.3170   21.8830 N   0  0  0  0  0  0  0  0  0  0  0  0
    7.8940   -0.1320   20.6450 C   0  0  0  0  0  0  0  0  0  0  0  0
    8.5540   -0.0180   19.6320 O   0  0  0  0  0  0  0  0  0  0  0  0
    6.5300   -0.0210   20.6490 N   0  0  0  0  0  0  0  0  0  0  0  0
    5.7780    0.5160   19.5750 C   0  0  0  0  0  0  0  0  0  0  0  0
    4.8370    1.5170   19.8430 C   0  0  0  0  0  0  0  0  0  0  0  0
    4.2310    2.1510   18.7510 C   0  0  0  0  0  0  0  0  0  0  0  0
    4.5980    1.7860   17.4470 C   0  0  0  0  0  0  0  0  0  0  0  0
    5.4640    0.7830   17.1800 N   0  0  0  0  0  0  0  0  0  0  0  0
    6.0440    0.1720   18.2310 C   0  0  0  0  0  0  0  0  0  0  0  0
   10.2520    1.0210   22.7680 C   0  0  0  0  0  0  0  0  0  0  0  0
  1  2  1  0
  2  3  1  0
  3 18  2  0
  3  4  1  0
  4  5  2  0
  5  6  1  0
  6  7  2  0
  7  8  1  0
  7 18  1  0
  8  9  1  0
  9 10  2  0
  9 11  1  0
 11 12  1  0
 12 13  2  0
 12 17  1  0
 13 14  1  0
 14 15  2  0
 15 16  1  0
 16 17  2  0
M  END
>  <original SMILES>  (693) 
CCc1cccc(NC(=O)Nc2cccnc2)c1

>  <AutoDock Predicted Affinity>  (693) 
-5.52401

>  <ref_pdb>  (693) 
x0434_0

>  <ref_mols>  (693) 
x0434_0

>  <creator>  (693) 
Will Poole

>  <energy minimised>  (693) 
True

$$$$
WPC1556_minimised.pdb
     RDKit          3D

 24 25  0  0  0  0  0  0  0  0999 V2000
   10.3860    6.0120   23.8730 C   0  0  0  0  0  0  0  0  0  0  0  0
   11.7880    5.8290   24.2970 N   0  0  0  0  0  0  0  0  0  0  0  0
   12.4880    6.9630   24.9180 C   0  0  0  0  0  0  0  0  0  0  0  0
   12.5160    4.7240   23.8900 C   0  0  0  0  0  0  0  0  0  0  0  0
   13.7000    4.8030   23.6280 O   0  0  0  0  0  0  0  0  0  0  0  0
   11.8500    3.4020   23.9320 C   0  0  0  0  0  0  0  0  0  0  0  0
   10.8880    3.1020   24.8380 C   0  0  0  0  0  0  0  0  0  0  0  0
   10.2960    1.5110   25.2060 S   0  0  0  0  0  0  0  0  0  0  0  0
   10.8420    0.4450   23.9050 C   0  0  0  0  0  0  0  0  0  0  0  0
   12.1940    0.1930   23.6170 C   0  0  0  0  0  0  0  0  0  0  0  0
   12.5330   -0.5760   22.4890 C   0  0  0  0  0  0  0  0  0  0  0  0
   11.5180   -1.1260   21.6860 C   0  0  0  0  0  0  0  0  0  0  0  0
   10.1730   -0.8970   22.0110 C   0  0  0  0  0  0  0  0  0  0  0  0
    9.1150   -1.2820   21.1750 N   0  0  0  0  0  0  0  0  0  0  0  0
    8.3520   -0.3560   20.5230 C   0  0  0  0  0  0  0  0  0  0  0  0
    8.6760    0.8080   20.4100 O   0  0  0  0  0  0  0  0  0  0  0  0
    7.1800   -0.8400   20.0220 N   0  0  0  0  0  0  0  0  0  0  0  0
    6.2840   -0.0750   19.2410 C   0  0  0  0  0  0  0  0  0  0  0  0
    5.6140    1.0240   19.7980 C   0  0  0  0  0  0  0  0  0  0  0  0
    4.8250    1.8110   18.9460 C   0  0  0  0  0  0  0  0  0  0  0  0
    4.7710    1.5060   17.5780 C   0  0  0  0  0  0  0  0  0  0  0  0
    5.4080    0.4390   17.0450 N   0  0  0  0  0  0  0  0  0  0  0  0
    6.1430   -0.3310   17.8680 C   0  0  0  0  0  0  0  0  0  0  0  0
    9.8430   -0.1150   23.1170 C   0  0  0  0  0  0  0  0  0  0  0  0
  1  2  1  0
  2  3  1  0
  2  4  1  0
  4  5  2  0
  4  6  1  0
  6  7  2  0
  7  8  1  0
  8  9  1  0
  9 24  2  0
  9 10  1  0
 10 11  2  0
 11 12  1  0
 12 13  2  0
 13 14  1  0
 13 24  1  0
 14 15  1  0
 15 16  2  0
 15 17  1  0
 17 18  1  0
 18 19  2  0
 18 23  1  0
 19 20  1  0
 20 21  2  0
 21 22  1  0
 22 23  2  0
M  END
>  <original SMILES>  (694) 
CN(C)C(=O)C=CSc1cccc(NC(=O)Nc2cccnc2)c1

>  <AutoDock Predicted Affinity>  (694) 
-5.700616

>  <ref_pdb>  (694) 
x0434_0

>  <ref_mols>  (694) 
x0434_0

>  <creator>  (694) 
Will Poole

>  <energy minimised>  (694) 
True

$$$$
WPC1670_minimised.pdb
     RDKit          3D

 24 25  0  0  0  0  0  0  0  0999 V2000
    8.3480    5.6540   22.2020 C   0  0  0  0  0  0  0  0  0  0  0  0
    8.8850    4.5680   23.0240 N   0  0  0  0  0  0  0  0  0  0  0  0
    8.3720    3.2310   22.6810 C   0  0  0  0  0  0  0  0  0  0  0  0
    9.9780    4.8290   23.8410 C   0  0  0  0  0  0  0  0  0  0  0  0
   10.2220    5.9600   24.2220 O   0  0  0  0  0  0  0  0  0  0  0  0
   10.9450    3.6930   24.1490 C   0  0  0  0  0  0  0  0  0  0  0  0
   11.8560    3.3800   22.9460 C   0  0  0  0  0  0  0  0  0  0  0  0
   13.0230    2.0160   23.3500 S   0  0  0  0  0  0  0  0  0  0  0  0
   12.2290    0.4930   22.8880 C   0  0  0  0  0  0  0  0  0  0  0  0
   13.0240   -0.6440   22.7090 C   0  0  0  0  0  0  0  0  0  0  0  0
   12.4250   -1.8880   22.4610 C   0  0  0  0  0  0  0  0  0  0  0  0
   11.0310   -1.9850   22.3120 C   0  0  0  0  0  0  0  0  0  0  0  0
   10.2430   -0.8300   22.4060 C   0  0  0  0  0  0  0  0  0  0  0  0
    8.8620   -0.8650   22.1140 N   0  0  0  0  0  0  0  0  0  0  0  0
    8.2970   -0.1720   21.0770 C   0  0  0  0  0  0  0  0  0  0  0  0
    8.9350    0.5400   20.3290 O   0  0  0  0  0  0  0  0  0  0  0  0
    6.9460   -0.3280   20.9360 N   0  0  0  0  0  0  0  0  0  0  0  0
    6.2000    0.2630   19.8860 C   0  0  0  0  0  0  0  0  0  0  0  0
    5.2290    1.2310   20.1700 C   0  0  0  0  0  0  0  0  0  0  0  0
    4.6250    1.8860   19.0870 C   0  0  0  0  0  0  0  0  0  0  0  0
    5.0050    1.5590   17.7750 C   0  0  0  0  0  0  0  0  0  0  0  0
    5.9100    0.5960   17.4920 N   0  0  0  0  0  0  0  0  0  0  0  0
    6.5100   -0.0130   18.5360 C   0  0  0  0  0  0  0  0  0  0  0  0
   10.8430    0.3970   22.7180 C   0  0  0  0  0  0  0  0  0  0  0  0
  1  2  1  0
  2  3  1  0
  2  4  1  0
  4  5  2  0
  4  6  1  0
  6  7  1  0
  7  8  1  0
  8  9  1  0
  9 24  2  0
  9 10  1  0
 10 11  2  0
 11 12  1  0
 12 13  2  0
 13 14  1  0
 13 24  1  0
 14 15  1  0
 15 16  2  0
 15 17  1  0
 17 18  1  0
 18 19  2  0
 18 23  1  0
 19 20  1  0
 20 21  2  0
 21 22  1  0
 22 23  2  0
M  END
>  <original SMILES>  (695) 
CN(C)C(=O)CCSc1cccc(NC(=O)Nc2cccnc2)c1

>  <AutoDock Predicted Affinity>  (695) 
-5.47706

>  <ref_pdb>  (695) 
x0434_0

>  <ref_mols>  (695) 
x0434_0

>  <creator>  (695) 
Will Poole

>  <energy minimised>  (695) 
True

$$$$
WPC2016_minimised.pdb
     RDKit          3D

 23 24  0  0  0  0  0  0  0  0999 V2000
   14.1420    5.2400   22.5210 C   0  0  0  0  0  0  0  0  0  0  0  0
   12.7230    5.0300   22.8370 N   0  0  0  0  0  0  0  0  0  0  0  0
   11.8670    4.6720   21.7140 C   0  0  0  0  0  0  0  0  0  0  0  0
   12.2210    5.1850   24.1170 C   0  0  0  0  0  0  0  0  0  0  0  0
   12.9440    5.3340   25.0810 O   0  0  0  0  0  0  0  0  0  0  0  0
   10.4860    4.7170   24.2890 S   0  0  0  0  0  0  0  0  0  0  0  0
   10.7530    3.0930   25.1050 C   0  0  0  0  0  0  0  0  0  0  0  0
   10.8370    1.9560   24.1060 C   0  0  0  0  0  0  0  0  0  0  0  0
   12.0730    1.5020   23.6080 C   0  0  0  0  0  0  0  0  0  0  0  0
   12.1150    0.4520   22.6750 C   0  0  0  0  0  0  0  0  0  0  0  0
   10.9210   -0.1410   22.2290 C   0  0  0  0  0  0  0  0  0  0  0  0
    9.6900    0.3110   22.7280 C   0  0  0  0  0  0  0  0  0  0  0  0
    8.4700   -0.1960   22.2380 N   0  0  0  0  0  0  0  0  0  0  0  0
    8.0000    0.0520   20.9800 C   0  0  0  0  0  0  0  0  0  0  0  0
    8.6770    0.5130   20.0850 O   0  0  0  0  0  0  0  0  0  0  0  0
    6.6640   -0.2010   20.8290 N   0  0  0  0  0  0  0  0  0  0  0  0
    5.9140    0.2820   19.7320 C   0  0  0  0  0  0  0  0  0  0  0  0
    4.9190    1.2400   19.9620 C   0  0  0  0  0  0  0  0  0  0  0  0
    4.3200    1.8370   18.8460 C   0  0  0  0  0  0  0  0  0  0  0  0
    4.7330    1.4640   17.5580 C   0  0  0  0  0  0  0  0  0  0  0  0
    5.6620    0.5090   17.3260 N   0  0  0  0  0  0  0  0  0  0  0  0
    6.2540   -0.0480   18.4030 C   0  0  0  0  0  0  0  0  0  0  0  0
    9.6510    1.3520   23.6650 C   0  0  0  0  0  0  0  0  0  0  0  0
  1  2  1  0
  2  3  1  0
  2  4  1  0
  4  5  2  0
  4  6  1  0
  6  7  1  0
  7  8  1  0
  8 23  2  0
  8  9  1  0
  9 10  2  0
 10 11  1  0
 11 12  2  0
 12 13  1  0
 12 23  1  0
 13 14  1  0
 14 15  2  0
 14 16  1  0
 16 17  1  0
 17 18  2  0
 17 22  1  0
 18 19  1  0
 19 20  2  0
 20 21  1  0
 21 22  2  0
M  END
>  <original SMILES>  (696) 
CN(C)C(=O)SCc1cccc(NC(=O)Nc2cccnc2)c1

>  <AutoDock Predicted Affinity>  (696) 
-5.414935

>  <ref_pdb>  (696) 
x0434_0

>  <ref_mols>  (696) 
x0434_0

>  <creator>  (696) 
Will Poole

>  <energy minimised>  (696) 
True

$$$$
WPC2555_minimised.pdb
     RDKit          3D

 24 25  0  0  1  0  0  0  0  0999 V2000
    8.6370    3.8280   22.6860 C   0  0  0  0  0  0  0  0  0  0  0  0
    9.4090    4.7760   23.5180 N   0  0  0  0  0  0  0  0  0  0  0  0
    9.3810    6.1680   23.0270 C   0  0  0  0  0  0  0  0  0  0  0  0
   10.6930    4.3290   24.1610 C   0  0  1  0  0  0  0  0  0  0  0  0
   10.7040    2.8760   24.7170 C   0  0  0  0  0  0  0  0  0  0  0  0
   10.8650    1.7240   23.7330 C   0  0  0  0  0  0  0  0  0  0  0  0
   12.1190    1.3860   23.1890 C   0  0  0  0  0  0  0  0  0  0  0  0
   12.2340    0.3040   22.2980 C   0  0  0  0  0  0  0  0  0  0  0  0
   11.0910   -0.4230   21.9220 C   0  0  0  0  0  0  0  0  0  0  0  0
    9.8450   -0.0950   22.4770 C   0  0  0  0  0  0  0  0  0  0  0  0
    8.6460   -0.6580   21.9960 N   0  0  0  0  0  0  0  0  0  0  0  0
    8.0940   -0.2630   20.8090 C   0  0  0  0  0  0  0  0  0  0  0  0
    8.7210    0.2980   19.9340 O   0  0  0  0  0  0  0  0  0  0  0  0
    6.7440   -0.4600   20.7080 N   0  0  0  0  0  0  0  0  0  0  0  0
    5.9700    0.1470   19.6870 C   0  0  0  0  0  0  0  0  0  0  0  0
    5.0380    1.1370   20.0220 C   0  0  0  0  0  0  0  0  0  0  0  0
    4.4420    1.8540   18.9750 C   0  0  0  0  0  0  0  0  0  0  0  0
    4.7970    1.5660   17.6470 C   0  0  0  0  0  0  0  0  0  0  0  0
    5.6680    0.5870   17.3170 N   0  0  0  0  0  0  0  0  0  0  0  0
    6.2540   -0.0890   18.3260 C   0  0  0  0  0  0  0  0  0  0  0  0
    9.7480    0.9390   23.4120 C   0  0  0  0  0  0  0  0  0  0  0  0
   12.0340    4.6580   23.4540 C   0  0  0  0  0  0  0  0  0  0  0  0
   13.0570    4.8720   24.0780 O   0  0  0  0  0  0  0  0  0  0  0  0
   12.0160    4.7920   22.1190 O   0  0  0  0  0  0  0  0  0  0  0  0
  1  2  1  0
  2  3  1  0
  2  4  1  0
  4 22  1  0
  4  5  1  6
  5  6  1  0
  6 21  2  0
  6  7  1  0
  7  8  2  0
  8  9  1  0
  9 10  2  0
 10 11  1  0
 10 21  1  0
 11 12  1  0
 12 13  2  0
 12 14  1  0
 14 15  1  0
 15 16  2  0
 15 20  1  0
 16 17  1  0
 17 18  2  0
 18 19  1  0
 19 20  2  0
 22 23  2  0
 22 24  1  0
M  END
>  <original SMILES>  (697) 
CN(C)C(Cc1cccc(NC(=O)Nc2cccnc2)c1)C(=O)O

>  <AutoDock Predicted Affinity>  (697) 
-6.26327

>  <ref_pdb>  (697) 
x0434_0

>  <ref_mols>  (697) 
x0434_0

>  <creator>  (697) 
Will Poole

>  <energy minimised>  (697) 
True

$$$$
WPC2614_minimised.pdb
     RDKit          3D

 22 23  0  0  0  0  0  0  0  0999 V2000
   13.5120    5.2190   22.4060 C   0  0  0  0  0  0  0  0  0  0  0  0
   12.5450    4.7600   23.4150 N   0  0  0  0  0  0  0  0  0  0  0  0
   11.7500    5.8210   24.0570 C   0  0  0  0  0  0  0  0  0  0  0  0
   12.2430    3.4140   23.5470 C   0  0  0  0  0  0  0  0  0  0  0  0
   11.4510    2.9740   24.4510 N   0  0  0  0  0  0  0  0  0  0  0  0
   11.5090    1.5320   24.7320 C   0  0  0  0  0  0  0  0  0  0  0  0
   11.1170    0.6390   23.5770 C   0  0  0  0  0  0  0  0  0  0  0  0
   12.0980   -0.0610   22.8500 C   0  0  0  0  0  0  0  0  0  0  0  0
   11.7170   -0.9880   21.8690 C   0  0  0  0  0  0  0  0  0  0  0  0
   10.3560   -1.1810   21.5910 C   0  0  0  0  0  0  0  0  0  0  0  0
    9.3840   -0.4270   22.2610 C   0  0  0  0  0  0  0  0  0  0  0  0
    8.0350   -0.4860   21.8660 N   0  0  0  0  0  0  0  0  0  0  0  0
    7.6130   -0.2040   20.5990 C   0  0  0  0  0  0  0  0  0  0  0  0
    8.3570   -0.0890   19.6440 O   0  0  0  0  0  0  0  0  0  0  0  0
    6.2630   -0.0080   20.5160 N   0  0  0  0  0  0  0  0  0  0  0  0
    5.6070    0.5980   19.4210 C   0  0  0  0  0  0  0  0  0  0  0  0
    4.6660    1.6040   19.6680 C   0  0  0  0  0  0  0  0  0  0  0  0
    4.1480    2.2940   18.5650 C   0  0  0  0  0  0  0  0  0  0  0  0
    4.6010    1.9790   17.2760 C   0  0  0  0  0  0  0  0  0  0  0  0
    5.4720    0.9750   17.0260 N   0  0  0  0  0  0  0  0  0  0  0  0
    5.9640    0.3080   18.0870 C   0  0  0  0  0  0  0  0  0  0  0  0
    9.7610    0.4660   23.2690 C   0  0  0  0  0  0  0  0  0  0  0  0
  1  2  1  0
  2  3  1  0
  2  4  1  0
  4  5  2  0
  5  6  1  0
  6  7  1  0
  7 22  2  0
  7  8  1  0
  8  9  2  0
  9 10  1  0
 10 11  2  0
 11 12  1  0
 11 22  1  0
 12 13  1  0
 13 14  2  0
 13 15  1  0
 15 16  1  0
 16 17  2  0
 16 21  1  0
 17 18  1  0
 18 19  2  0
 19 20  1  0
 20 21  2  0
M  END
>  <original SMILES>  (698) 
CN(C)C=NCc1cccc(NC(=O)Nc2cccnc2)c1

>  <AutoDock Predicted Affinity>  (698) 
-5.96096

>  <ref_pdb>  (698) 
x0434_0

>  <ref_mols>  (698) 
x0434_0

>  <creator>  (698) 
Will Poole

>  <energy minimised>  (698) 
True

$$$$
WPC1462_minimised.pdb
     RDKit          3D

 24 25  0  0  0  0  0  0  0  0999 V2000
   10.0530    5.6340   23.0080 C   0  0  0  0  0  0  0  0  0  0  0  0
   11.4710    5.6060   23.4310 N   0  0  0  0  0  0  0  0  0  0  0  0
   12.3590    5.0040   22.4110 C   0  0  0  0  0  0  0  0  0  0  0  0
   11.6420    5.0120   24.7810 C   0  0  0  0  0  0  0  0  0  0  0  0
   11.2620    3.5260   24.9280 C   0  0  0  0  0  0  0  0  0  0  0  0
   10.3180    3.1620   25.5960 O   0  0  0  0  0  0  0  0  0  0  0  0
   12.1130    2.6200   24.3380 N   0  0  0  0  0  0  0  0  0  0  0  0
   12.1500    1.2020   24.6870 C   0  0  0  0  0  0  0  0  0  0  0  0
   12.1270    0.3550   23.4500 C   0  0  0  0  0  0  0  0  0  0  0  0
   13.3170   -0.0120   22.7990 C   0  0  0  0  0  0  0  0  0  0  0  0
   13.2630   -0.8470   21.6750 C   0  0  0  0  0  0  0  0  0  0  0  0
   12.0180   -1.2770   21.1910 C   0  0  0  0  0  0  0  0  0  0  0  0
   10.8300   -0.8730   21.8190 C   0  0  0  0  0  0  0  0  0  0  0  0
    9.5660   -1.1950   21.2880 N   0  0  0  0  0  0  0  0  0  0  0  0
    8.7260   -0.2700   20.7300 C   0  0  0  0  0  0  0  0  0  0  0  0
    9.0260    0.8980   20.5860 O   0  0  0  0  0  0  0  0  0  0  0  0
    7.5290   -0.7790   20.3080 N   0  0  0  0  0  0  0  0  0  0  0  0
    6.5950   -0.0680   19.5150 C   0  0  0  0  0  0  0  0  0  0  0  0
    5.9140    1.0410   20.0370 C   0  0  0  0  0  0  0  0  0  0  0  0
    5.0660    1.7570   19.1770 C   0  0  0  0  0  0  0  0  0  0  0  0
    4.9570    1.3700   17.8320 C   0  0  0  0  0  0  0  0  0  0  0  0
    5.5960    0.2880   17.3320 N   0  0  0  0  0  0  0  0  0  0  0  0
    6.3990   -0.4040   18.1630 C   0  0  0  0  0  0  0  0  0  0  0  0
   10.8900   -0.0610   22.9510 C   0  0  0  0  0  0  0  0  0  0  0  0
  1  2  1  0
  2  3  1  0
  2  4  1  0
  4  5  1  0
  5  6  2  0
  5  7  1  0
  7  8  1  0
  8  9  1  0
  9 24  2  0
  9 10  1  0
 10 11  2  0
 11 12  1  0
 12 13  2  0
 13 14  1  0
 13 24  1  0
 14 15  1  0
 15 16  2  0
 15 17  1  0
 17 18  1  0
 18 19  2  0
 18 23  1  0
 19 20  1  0
 20 21  2  0
 21 22  1  0
 22 23  2  0
M  END
>  <original SMILES>  (699) 
CN(C)CC(=O)NCc1cccc(NC(=O)Nc2cccnc2)c1

>  <AutoDock Predicted Affinity>  (699) 
-6.12443

>  <ref_pdb>  (699) 
x0434_0

>  <ref_mols>  (699) 
x0434_0

>  <creator>  (699) 
Will Poole

>  <energy minimised>  (699) 
True

$$$$
WPC2145_minimised.pdb
     RDKit          3D

 24 25  0  0  0  0  0  0  0  0999 V2000
   11.7660    5.1820   26.3540 C   0  0  0  0  0  0  0  0  0  0  0  0
   12.0880    5.9480   25.1480 N   0  0  0  0  0  0  0  0  0  0  0  0
   12.5770    7.3000   25.4770 C   0  0  0  0  0  0  0  0  0  0  0  0
   10.9880    5.8720   24.1680 C   0  0  0  0  0  0  0  0  0  0  0  0
   11.0960    4.5860   23.3300 C   0  0  0  0  0  0  0  0  0  0  0  0
   12.3660    4.5900   22.4480 C   0  0  0  0  0  0  0  0  0  0  0  0
   12.5720    3.2760   21.6800 C   0  0  0  0  0  0  0  0  0  0  0  0
   13.3480    2.0080   22.7710 S   0  0  0  0  0  0  0  0  0  0  0  0
   12.2530    0.6010   22.7590 C   0  0  0  0  0  0  0  0  0  0  0  0
   12.8140   -0.6780   22.8700 C   0  0  0  0  0  0  0  0  0  0  0  0
   11.9890   -1.8130   22.9360 C   0  0  0  0  0  0  0  0  0  0  0  0
   10.5980   -1.6750   22.8180 C   0  0  0  0  0  0  0  0  0  0  0  0
   10.0390   -0.4010   22.6480 C   0  0  0  0  0  0  0  0  0  0  0  0
    8.6660   -0.2720   22.3610 N   0  0  0  0  0  0  0  0  0  0  0  0
    8.1930    0.2190   21.1750 C   0  0  0  0  0  0  0  0  0  0  0  0
    8.9080    0.6630   20.3000 O   0  0  0  0  0  0  0  0  0  0  0  0
    6.8340    0.1540   21.0430 N   0  0  0  0  0  0  0  0  0  0  0  0
    6.1170    0.6040   19.9080 C   0  0  0  0  0  0  0  0  0  0  0  0
    5.1020    1.5540   20.0690 C   0  0  0  0  0  0  0  0  0  0  0  0
    4.5050    2.0680   18.9110 C   0  0  0  0  0  0  0  0  0  0  0  0
    4.9320    1.6200   17.6510 C   0  0  0  0  0  0  0  0  0  0  0  0
    5.8710    0.6610   17.4860 N   0  0  0  0  0  0  0  0  0  0  0  0
    6.4670    0.1910   18.6020 C   0  0  0  0  0  0  0  0  0  0  0  0
   10.8600    0.7380   22.6550 C   0  0  0  0  0  0  0  0  0  0  0  0
  1  2  1  0
  2  3  1  0
  2  4  1  0
  4  5  1  0
  5  6  1  0
  6  7  1  0
  7  8  1  0
  8  9  1  0
  9 24  2  0
  9 10  1  0
 10 11  2  0
 11 12  1  0
 12 13  2  0
 13 14  1  0
 13 24  1  0
 14 15  1  0
 15 16  2  0
 15 17  1  0
 17 18  1  0
 18 19  2  0
 18 23  1  0
 19 20  1  0
 20 21  2  0
 21 22  1  0
 22 23  2  0
M  END
>  <original SMILES>  (700) 
CN(C)CCCCSc1cccc(NC(=O)Nc2cccnc2)c1

>  <AutoDock Predicted Affinity>  (700) 
-4.833582

>  <ref_pdb>  (700) 
x0434_0

>  <ref_mols>  (700) 
x0434_0

>  <creator>  (700) 
Will Poole

>  <energy minimised>  (700) 
True

$$$$
WPC2041_minimised.pdb
     RDKit          3D

 22 23  0  0  0  0  0  0  0  0999 V2000
   13.4470    5.2280   22.3450 C   0  0  0  0  0  0  0  0  0  0  0  0
   12.7440    4.8550   23.5860 N   0  0  0  0  0  0  0  0  0  0  0  0
   12.2250    6.0270   24.3240 C   0  0  0  0  0  0  0  0  0  0  0  0
   11.7120    3.8200   23.3380 C   0  0  0  0  0  0  0  0  0  0  0  0
   11.4520    3.0350   24.6300 C   0  0  0  0  0  0  0  0  0  0  0  0
    9.8730    2.1260   24.6690 S   0  0  0  0  0  0  0  0  0  0  0  0
   10.0310    0.7650   23.5470 C   0  0  0  0  0  0  0  0  0  0  0  0
   11.2490    0.1380   23.2280 C   0  0  0  0  0  0  0  0  0  0  0  0
   11.2600   -0.9550   22.3410 C   0  0  0  0  0  0  0  0  0  0  0  0
   10.0560   -1.4030   21.7710 C   0  0  0  0  0  0  0  0  0  0  0  0
    8.8530   -0.7630   22.0930 C   0  0  0  0  0  0  0  0  0  0  0  0
    7.6460   -1.0660   21.4540 N   0  0  0  0  0  0  0  0  0  0  0  0
    7.3680   -0.5840   20.2120 C   0  0  0  0  0  0  0  0  0  0  0  0
    8.2060   -0.3100   19.3750 O   0  0  0  0  0  0  0  0  0  0  0  0
    6.0320   -0.3440   20.0510 N   0  0  0  0  0  0  0  0  0  0  0  0
    5.4820    0.4560   19.0260 C   0  0  0  0  0  0  0  0  0  0  0  0
    4.5410    1.4420   19.3460 C   0  0  0  0  0  0  0  0  0  0  0  0
    4.1170    2.2930   18.3160 C   0  0  0  0  0  0  0  0  0  0  0  0
    4.6680    2.1560   17.0340 C   0  0  0  0  0  0  0  0  0  0  0  0
    5.5600    1.1910   16.7160 N   0  0  0  0  0  0  0  0  0  0  0  0
    5.9500    0.3630   17.7010 C   0  0  0  0  0  0  0  0  0  0  0  0
    8.8420    0.3080   22.9840 C   0  0  0  0  0  0  0  0  0  0  0  0
  1  2  1  0
  2  3  1  0
  2  4  1  0
  4  5  1  0
  5  6  1  0
  6  7  1  0
  7 22  2  0
  7  8  1  0
  8  9  2  0
  9 10  1  0
 10 11  2  0
 11 12  1  0
 11 22  1  0
 12 13  1  0
 13 14  2  0
 13 15  1  0
 15 16  1  0
 16 17  2  0
 16 21  1  0
 17 18  1  0
 18 19  2  0
 19 20  1  0
 20 21  2  0
M  END
>  <original SMILES>  (701) 
CN(C)CCSc1cccc(NC(=O)Nc2cccnc2)c1

>  <AutoDock Predicted Affinity>  (701) 
-5.318553

>  <ref_pdb>  (701) 
x0434_0

>  <ref_mols>  (701) 
x0434_0

>  <creator>  (701) 
Will Poole

>  <energy minimised>  (701) 
True

$$$$
WPC1936_minimised.pdb
     RDKit          3D

 21 22  0  0  0  0  0  0  0  0999 V2000
   12.9050    4.5470   23.0560 C   0  0  0  0  0  0  0  0  0  0  0  0
   12.0420    4.7550   24.2350 N   0  0  0  0  0  0  0  0  0  0  0  0
   11.8920    6.1750   24.5860 C   0  0  0  0  0  0  0  0  0  0  0  0
   10.7420    4.0540   24.1190 C   0  0  0  0  0  0  0  0  0  0  0  0
   10.8260    2.6060   24.6440 C   0  0  0  0  0  0  0  0  0  0  0  0
   10.8230    1.5060   23.6010 C   0  0  0  0  0  0  0  0  0  0  0  0
   12.0210    0.9230   23.1470 C   0  0  0  0  0  0  0  0  0  0  0  0
   11.9850   -0.1570   22.2490 C   0  0  0  0  0  0  0  0  0  0  0  0
   10.7480   -0.6680   21.8190 C   0  0  0  0  0  0  0  0  0  0  0  0
    9.5560   -0.0890   22.2780 C   0  0  0  0  0  0  0  0  0  0  0  0
    8.2990   -0.5260   21.8240 N   0  0  0  0  0  0  0  0  0  0  0  0
    7.8310   -0.2740   20.5690 C   0  0  0  0  0  0  0  0  0  0  0  0
    8.5360    0.0250   19.6270 O   0  0  0  0  0  0  0  0  0  0  0  0
    6.4660   -0.2890   20.4940 N   0  0  0  0  0  0  0  0  0  0  0  0
    5.7460    0.3350   19.4500 C   0  0  0  0  0  0  0  0  0  0  0  0
    4.8140    1.3310   19.7660 C   0  0  0  0  0  0  0  0  0  0  0  0
    4.2500    2.0530   18.7060 C   0  0  0  0  0  0  0  0  0  0  0  0
    4.6490    1.7770   17.3900 C   0  0  0  0  0  0  0  0  0  0  0  0
    5.5200    0.7900   17.0780 N   0  0  0  0  0  0  0  0  0  0  0  0
    6.0600    0.0950   18.0970 C   0  0  0  0  0  0  0  0  0  0  0  0
    9.5960    0.9940   23.1620 C   0  0  0  0  0  0  0  0  0  0  0  0
  1  2  1  0
  2  3  1  0
  2  4  1  0
  4  5  1  0
  5  6  1  0
  6 21  2  0
  6  7  1  0
  7  8  2  0
  8  9  1  0
  9 10  2  0
 10 11  1  0
 10 21  1  0
 11 12  1  0
 12 13  2  0
 12 14  1  0
 14 15  1  0
 15 16  2  0
 15 20  1  0
 16 17  1  0
 17 18  2  0
 18 19  1  0
 19 20  2  0
M  END
>  <original SMILES>  (702) 
CN(C)CCc1cccc(NC(=O)Nc2cccnc2)c1

>  <AutoDock Predicted Affinity>  (702) 
-5.796485

>  <ref_pdb>  (702) 
x0434_0

>  <ref_mols>  (702) 
x0434_0

>  <creator>  (702) 
Will Poole

>  <energy minimised>  (702) 
True

$$$$
WPC1891_minimised.pdb
     RDKit          3D

 23 24  0  0  0  0  0  0  0  0999 V2000
    9.3230    4.0580   23.1380 C   0  0  0  0  0  0  0  0  0  0  0  0
   10.3430    4.1330   24.2000 N   0  0  0  0  0  0  0  0  0  0  0  0
   10.6760    2.8650   24.8790 C   0  0  0  0  0  0  0  0  0  0  0  0
   10.9270    1.6910   23.9430 C   0  0  0  0  0  0  0  0  0  0  0  0
   12.2140    1.3550   23.4800 C   0  0  0  0  0  0  0  0  0  0  0  0
   12.3820    0.2940   22.5720 C   0  0  0  0  0  0  0  0  0  0  0  0
   11.2640   -0.4300   22.1170 C   0  0  0  0  0  0  0  0  0  0  0  0
    9.9860   -0.1060   22.5960 C   0  0  0  0  0  0  0  0  0  0  0  0
    8.8220   -0.6770   22.0450 N   0  0  0  0  0  0  0  0  0  0  0  0
    8.2310   -0.1600   20.9260 C   0  0  0  0  0  0  0  0  0  0  0  0
    8.7910    0.6160   20.1820 O   0  0  0  0  0  0  0  0  0  0  0  0
    6.9270   -0.5230   20.7360 N   0  0  0  0  0  0  0  0  0  0  0  0
    6.1230    0.0690   19.7310 C   0  0  0  0  0  0  0  0  0  0  0  0
    5.1820    1.0470   20.0800 C   0  0  0  0  0  0  0  0  0  0  0  0
    4.5480    1.7450   19.0420 C   0  0  0  0  0  0  0  0  0  0  0  0
    4.8720    1.4480   17.7090 C   0  0  0  0  0  0  0  0  0  0  0  0
    5.7580    0.4860   17.3660 N   0  0  0  0  0  0  0  0  0  0  0  0
    6.3850   -0.1660   18.3660 C   0  0  0  0  0  0  0  0  0  0  0  0
    9.8260    0.9320   23.5180 C   0  0  0  0  0  0  0  0  0  0  0  0
   11.5230    5.2860   24.0130 S   0  0  0  0  0  0  0  0  0  0  0  0
   12.3250    4.9180   22.4850 C   0  0  0  0  0  0  0  0  0  0  0  0
   10.8130    6.5430   23.9830 O   0  0  0  0  0  0  0  0  0  0  0  0
   12.5090    5.0730   25.0440 O   0  0  0  0  0  0  0  0  0  0  0  0
  1  2  1  0
  2 20  1  0
  2  3  1  0
  3  4  1  0
  4 19  2  0
  4  5  1  0
  5  6  2  0
  6  7  1  0
  7  8  2  0
  8  9  1  0
  8 19  1  0
  9 10  1  0
 10 11  2  0
 10 12  1  0
 12 13  1  0
 13 14  2  0
 13 18  1  0
 14 15  1  0
 15 16  2  0
 16 17  1  0
 17 18  2  0
 20 21  1  0
 20 22  2  0
 20 23  2  0
M  END
>  <original SMILES>  (703) 
CN(Cc1cccc(NC(=O)Nc2cccnc2)c1)S(C)(=O)=O

>  <AutoDock Predicted Affinity>  (703) 
-6.04769

>  <ref_pdb>  (703) 
x0434_0

>  <ref_mols>  (703) 
x0434_0

>  <creator>  (703) 
Will Poole

>  <energy minimised>  (703) 
True

$$$$
WPC2088_minimised.pdb
     RDKit          3D

 24 25  0  0  0  0  0  0  0  0999 V2000
   12.6980    6.8690   25.3450 C   0  0  0  0  0  0  0  0  0  0  0  0
   12.3870    5.8700   24.3120 N   0  0  0  0  0  0  0  0  0  0  0  0
   13.4460    4.9670   24.0380 O   0  0  0  0  0  0  0  0  0  0  0  0
   11.0970    5.6690   23.8130 C   0  0  0  0  0  0  0  0  0  0  0  0
   10.2470    6.5360   23.9130 O   0  0  0  0  0  0  0  0  0  0  0  0
   10.7430    4.2890   23.2620 C   0  0  0  0  0  0  0  0  0  0  0  0
   10.2970    3.3280   24.3840 C   0  0  0  0  0  0  0  0  0  0  0  0
   11.2150    2.1040   24.5920 C   0  0  0  0  0  0  0  0  0  0  0  0
   11.0820    1.0140   23.5480 C   0  0  0  0  0  0  0  0  0  0  0  0
   12.2200    0.4700   22.9260 C   0  0  0  0  0  0  0  0  0  0  0  0
   12.0850   -0.5870   22.0100 C   0  0  0  0  0  0  0  0  0  0  0  0
   10.8060   -1.0750   21.6950 C   0  0  0  0  0  0  0  0  0  0  0  0
    9.6710   -0.5100   22.2900 C   0  0  0  0  0  0  0  0  0  0  0  0
    8.3710   -0.8380   21.8650 N   0  0  0  0  0  0  0  0  0  0  0  0
    7.8920   -0.4790   20.6370 C   0  0  0  0  0  0  0  0  0  0  0  0
    8.5970   -0.1970   19.6890 O   0  0  0  0  0  0  0  0  0  0  0  0
    6.5280   -0.3850   20.5880 N   0  0  0  0  0  0  0  0  0  0  0  0
    5.8270    0.2730   19.5500 C   0  0  0  0  0  0  0  0  0  0  0  0
    4.9170    1.2880   19.8730 C   0  0  0  0  0  0  0  0  0  0  0  0
    4.3570    2.0220   18.8180 C   0  0  0  0  0  0  0  0  0  0  0  0
    4.7320    1.7350   17.4970 C   0  0  0  0  0  0  0  0  0  0  0  0
    5.5800    0.7320   17.1770 N   0  0  0  0  0  0  0  0  0  0  0  0
    6.1200    0.0280   18.1910 C   0  0  0  0  0  0  0  0  0  0  0  0
    9.8120    0.5020   23.2390 C   0  0  0  0  0  0  0  0  0  0  0  0
  1  2  1  0
  2  3  1  0
  2  4  1  0
  4  5  2  0
  4  6  1  0
  6  7  1  0
  7  8  1  0
  8  9  1  0
  9 24  2  0
  9 10  1  0
 10 11  2  0
 11 12  1  0
 12 13  2  0
 13 14  1  0
 13 24  1  0
 14 15  1  0
 15 16  2  0
 15 17  1  0
 17 18  1  0
 18 19  2  0
 18 23  1  0
 19 20  1  0
 20 21  2  0
 21 22  1  0
 22 23  2  0
M  END
>  <original SMILES>  (704) 
CN(O)C(=O)CCCc1cccc(NC(=O)Nc2cccnc2)c1

>  <AutoDock Predicted Affinity>  (704) 
-5.982635

>  <ref_pdb>  (704) 
x0434_0

>  <ref_mols>  (704) 
x0434_0

>  <creator>  (704) 
Will Poole

>  <energy minimised>  (704) 
True

$$$$
WPC2221_minimised.pdb
     RDKit          3D

 24 26  0  0  0  0  0  0  0  0999 V2000
   11.7300    5.9410   24.4610 C   0  0  0  0  0  0  0  0  0  0  0  0
   12.1480    4.5780   24.0910 N   0  0  0  0  0  0  0  0  0  0  0  0
   11.0490    3.5940   24.2080 C   0  0  0  0  0  0  0  0  0  0  0  0
   11.5130    2.2040   23.8280 C   0  0  0  0  0  0  0  0  0  0  0  0
   12.5450    1.9650   23.0090 C   0  0  0  0  0  0  0  0  0  0  0  0
   13.0310    0.3540   22.5250 S   0  0  0  0  0  0  0  0  0  0  0  0
   11.5970   -0.7130   22.6450 C   0  0  0  0  0  0  0  0  0  0  0  0
   11.7410   -2.0390   23.0850 C   0  0  0  0  0  0  0  0  0  0  0  0
   10.6190   -2.8680   23.2420 C   0  0  0  0  0  0  0  0  0  0  0  0
    9.3430   -2.3830   22.9200 C   0  0  0  0  0  0  0  0  0  0  0  0
    9.1970   -1.0800   22.4210 C   0  0  0  0  0  0  0  0  0  0  0  0
    7.9160   -0.6230   22.0470 N   0  0  0  0  0  0  0  0  0  0  0  0
    7.6120    0.0150   20.8780 C   0  0  0  0  0  0  0  0  0  0  0  0
    8.4290    0.3370   20.0390 O   0  0  0  0  0  0  0  0  0  0  0  0
    6.2740    0.2340   20.7230 N   0  0  0  0  0  0  0  0  0  0  0  0
    5.6650    0.8080   19.5820 C   0  0  0  0  0  0  0  0  0  0  0  0
    4.6760    1.7850   19.7450 C   0  0  0  0  0  0  0  0  0  0  0  0
    4.1730    2.3940   18.5890 C   0  0  0  0  0  0  0  0  0  0  0  0
    4.6700    2.0200   17.3320 C   0  0  0  0  0  0  0  0  0  0  0  0
    5.5830    1.0370   17.1630 N   0  0  0  0  0  0  0  0  0  0  0  0
    6.0790    0.4630   18.2760 C   0  0  0  0  0  0  0  0  0  0  0  0
   10.3230   -0.2510   22.2800 C   0  0  0  0  0  0  0  0  0  0  0  0
   13.3800    3.1140   22.4760 C   0  0  0  0  0  0  0  0  0  0  0  0
   12.7800    4.5120   22.7550 C   0  0  0  0  0  0  0  0  0  0  0  0
  1  2  1  0
  2  3  1  0
  2 24  1  0
  3  4  1  0
  4  5  2  0
  5 23  1  0
  5  6  1  0
  6  7  1  0
  7 22  1  0
  7  8  2  0
  8  9  1  0
  9 10  2  0
 10 11  1  0
 11 12  1  0
 11 22  2  0
 12 13  1  0
 13 14  2  0
 13 15  1  0
 15 16  1  0
 16 17  2  0
 16 21  1  0
 17 18  1  0
 18 19  2  0
 19 20  1  0
 20 21  2  0
 23 24  1  0
M  END
>  <original SMILES>  (705) 
CN1CC=C(Sc2cccc(NC(=O)Nc3cccnc3)c2)CC1

>  <AutoDock Predicted Affinity>  (705) 
-6.454576

>  <ref_pdb>  (705) 
x0434_0

>  <ref_mols>  (705) 
x0434_0

>  <creator>  (705) 
Will Poole

>  <energy minimised>  (705) 
True

$$$$
WPC2402_minimised.pdb
     RDKit          3D

 24 26  0  0  0  0  0  0  0  0999 V2000
    9.5870    6.1220   23.3040 C   0  0  0  0  0  0  0  0  0  0  0  0
   10.2310    4.8800   22.8850 N   0  0  0  0  0  0  0  0  0  0  0  0
    9.5800    3.6520   23.3950 C   0  0  0  0  0  0  0  0  0  0  0  0
   10.3120    3.1390   24.6640 C   0  0  0  0  0  0  0  0  0  0  0  0
   11.7210    2.7650   24.3790 N   0  0  0  0  0  0  0  0  0  0  0  0
   12.0460    1.3310   24.5340 C   0  0  0  0  0  0  0  0  0  0  0  0
   11.5720    0.4220   23.4200 C   0  0  0  0  0  0  0  0  0  0  0  0
   12.5080   -0.2140   22.5850 C   0  0  0  0  0  0  0  0  0  0  0  0
   12.0790   -1.1510   21.6350 C   0  0  0  0  0  0  0  0  0  0  0  0
   10.7080   -1.4100   21.4880 C   0  0  0  0  0  0  0  0  0  0  0  0
    9.7700   -0.7180   22.2580 C   0  0  0  0  0  0  0  0  0  0  0  0
    8.4000   -0.7850   21.9360 N   0  0  0  0  0  0  0  0  0  0  0  0
    7.9050   -0.3500   20.7370 C   0  0  0  0  0  0  0  0  0  0  0  0
    8.6020   -0.0340   19.7930 O   0  0  0  0  0  0  0  0  0  0  0  0
    6.5410   -0.2520   20.6970 N   0  0  0  0  0  0  0  0  0  0  0  0
    5.8310    0.3650   19.6370 C   0  0  0  0  0  0  0  0  0  0  0  0
    4.9000    1.3700   19.9260 C   0  0  0  0  0  0  0  0  0  0  0  0
    4.3400    2.0680   18.8470 C   0  0  0  0  0  0  0  0  0  0  0  0
    4.7360    1.7570   17.5380 C   0  0  0  0  0  0  0  0  0  0  0  0
    5.5950    0.7540   17.2490 N   0  0  0  0  0  0  0  0  0  0  0  0
    6.1370    0.0870   18.2870 C   0  0  0  0  0  0  0  0  0  0  0  0
   10.2020    0.1590   23.2540 C   0  0  0  0  0  0  0  0  0  0  0  0
   12.2980    3.4360   23.1800 C   0  0  0  0  0  0  0  0  0  0  0  0
   11.7190    4.8690   22.9960 C   0  0  0  0  0  0  0  0  0  0  0  0
  1  2  1  0
  2  3  1  0
  2 24  1  0
  3  4  1  0
  4  5  1  0
  5 23  1  0
  5  6  1  0
  6  7  1  0
  7 22  1  0
  7  8  2  0
  8  9  1  0
  9 10  2  0
 10 11  1  0
 11 12  1  0
 11 22  2  0
 12 13  1  0
 13 14  2  0
 13 15  1  0
 15 16  1  0
 16 17  2  0
 16 21  1  0
 17 18  1  0
 18 19  2  0
 19 20  1  0
 20 21  2  0
 23 24  1  0
M  END
>  <original SMILES>  (706) 
CN1CCN(Cc2cccc(NC(=O)Nc3cccnc3)c2)CC1

>  <AutoDock Predicted Affinity>  (706) 
-6.28148

>  <ref_pdb>  (706) 
x0434_0

>  <ref_mols>  (706) 
x0434_0

>  <creator>  (706) 
Will Poole

>  <energy minimised>  (706) 
True

$$$$
WPC2057_minimised.pdb
     RDKit          3D

 23 24  0  0  0  0  0  0  0  0999 V2000
   12.9370    4.6930   20.8640 C   0  0  0  0  0  0  0  0  0  0  0  0
   12.1410    3.9600   21.8540 N   0  0  0  0  0  0  0  0  0  0  0  0
   12.4070    4.0090   23.1000 C   0  0  0  0  0  0  0  0  0  0  0  0
   13.5320    4.6070   23.6380 N   0  0  0  0  0  0  0  0  0  0  0  0
   14.8810    4.4280   23.0790 C   0  0  0  0  0  0  0  0  0  0  0  0
   11.3460    3.5490   24.3790 S   0  0  0  0  0  0  0  0  0  0  0  0
   11.7820    1.7750   24.6080 C   0  0  0  0  0  0  0  0  0  0  0  0
   11.3650    0.8570   23.4830 C   0  0  0  0  0  0  0  0  0  0  0  0
   12.3290    0.1080   22.7880 C   0  0  0  0  0  0  0  0  0  0  0  0
   11.9300   -0.8530   21.8470 C   0  0  0  0  0  0  0  0  0  0  0  0
   10.5650   -1.0440   21.5890 C   0  0  0  0  0  0  0  0  0  0  0  0
    9.6040   -0.2560   22.2390 C   0  0  0  0  0  0  0  0  0  0  0  0
    8.2400   -0.3500   21.8970 N   0  0  0  0  0  0  0  0  0  0  0  0
    7.7560   -0.2180   20.6260 C   0  0  0  0  0  0  0  0  0  0  0  0
    8.4460   -0.2320   19.6280 O   0  0  0  0  0  0  0  0  0  0  0  0
    6.4050   -0.0130   20.5900 N   0  0  0  0  0  0  0  0  0  0  0  0
    5.7020    0.5330   19.4900 C   0  0  0  0  0  0  0  0  0  0  0  0
    4.7610    1.5410   19.7350 C   0  0  0  0  0  0  0  0  0  0  0  0
    4.1820    2.1730   18.6300 C   0  0  0  0  0  0  0  0  0  0  0  0
    4.5790    1.8070   17.3370 C   0  0  0  0  0  0  0  0  0  0  0  0
    5.4460    0.7990   17.0890 N   0  0  0  0  0  0  0  0  0  0  0  0
    6.0000    0.1860   18.1540 C   0  0  0  0  0  0  0  0  0  0  0  0
   10.0030    0.6820   23.1990 C   0  0  0  0  0  0  0  0  0  0  0  0
  1  2  1  0
  2  3  2  0
  3  4  1  0
  3  6  1  0
  4  5  1  0
  6  7  1  0
  7  8  1  0
  8 23  2  0
  8  9  1  0
  9 10  2  0
 10 11  1  0
 11 12  2  0
 12 13  1  0
 12 23  1  0
 13 14  1  0
 14 15  2  0
 14 16  1  0
 16 17  1  0
 17 18  2  0
 17 22  1  0
 18 19  1  0
 19 20  2  0
 20 21  1  0
 21 22  2  0
M  END
>  <original SMILES>  (707) 
CN=C(NC)SCc1cccc(NC(=O)Nc2cccnc2)c1

>  <AutoDock Predicted Affinity>  (707) 
-4.60039

>  <ref_pdb>  (707) 
x0434_0

>  <ref_mols>  (707) 
x0434_0

>  <creator>  (707) 
Will Poole

>  <energy minimised>  (707) 
True

$$$$
WPC1111_minimised.pdb
     RDKit          3D

 21 22  0  0  0  0  0  0  0  0999 V2000
   13.0390    5.1040   22.6790 C   0  0  0  0  0  0  0  0  0  0  0  0
   12.7870    3.7510   23.1860 N   0  0  0  0  0  0  0  0  0  0  0  0
   11.6490    3.3000   23.8090 C   0  0  0  0  0  0  0  0  0  0  0  0
   10.7190    4.1120   24.0960 N   0  0  0  0  0  0  0  0  0  0  0  0
   11.6970    1.8830   24.3200 C   0  0  0  0  0  0  0  0  0  0  0  0
   11.2780    0.8310   23.3180 C   0  0  0  0  0  0  0  0  0  0  0  0
   12.2350    0.0080   22.6970 C   0  0  0  0  0  0  0  0  0  0  0  0
   11.8210   -1.0330   21.8510 C   0  0  0  0  0  0  0  0  0  0  0  0
   10.4530   -1.2320   21.6130 C   0  0  0  0  0  0  0  0  0  0  0  0
    9.5050   -0.3790   22.1940 C   0  0  0  0  0  0  0  0  0  0  0  0
    8.1460   -0.4730   21.8450 N   0  0  0  0  0  0  0  0  0  0  0  0
    7.6840   -0.2220   20.5860 C   0  0  0  0  0  0  0  0  0  0  0  0
    8.4030   -0.1170   19.6120 O   0  0  0  0  0  0  0  0  0  0  0  0
    6.3310   -0.0380   20.5340 N   0  0  0  0  0  0  0  0  0  0  0  0
    5.6470    0.5610   19.4500 C   0  0  0  0  0  0  0  0  0  0  0  0
    4.7130    1.5700   19.7140 C   0  0  0  0  0  0  0  0  0  0  0  0
    4.1720    2.2560   18.6200 C   0  0  0  0  0  0  0  0  0  0  0  0
    4.5960    1.9370   17.3220 C   0  0  0  0  0  0  0  0  0  0  0  0
    5.4580    0.9290   17.0580 N   0  0  0  0  0  0  0  0  0  0  0  0
    5.9720    0.2640   18.1090 C   0  0  0  0  0  0  0  0  0  0  0  0
    9.9150    0.6430   23.0560 C   0  0  0  0  0  0  0  0  0  0  0  0
  1  2  1  0
  2  3  1  0
  3  4  2  0
  3  5  1  0
  5  6  1  0
  6 21  2  0
  6  7  1  0
  7  8  2  0
  8  9  1  0
  9 10  2  0
 10 11  1  0
 10 21  1  0
 11 12  1  0
 12 13  2  0
 12 14  1  0
 14 15  1  0
 15 16  2  0
 15 20  1  0
 16 17  1  0
 17 18  2  0
 18 19  1  0
 19 20  2  0
M  END
>  <original SMILES>  (708) 
CNC(=N)Cc1cccc(NC(=O)Nc2cccnc2)c1

>  <AutoDock Predicted Affinity>  (708) 
-5.71355

>  <ref_pdb>  (708) 
x0434_0

>  <ref_mols>  (708) 
x0434_0

>  <creator>  (708) 
Will Poole

>  <energy minimised>  (708) 
True

$$$$
WPC2596_minimised.pdb
     RDKit          3D

 23 24  0  0  1  0  0  0  0  0999 V2000
    8.2240    5.4300   22.0990 C   0  0  0  0  0  0  0  0  0  0  0  0
    9.4990    4.7760   22.3790 N   0  0  0  0  0  0  0  0  0  0  0  0
   10.3020    5.0610   23.4540 C   0  0  0  0  0  0  0  0  0  0  0  0
    9.9260    5.7740   24.3650 O   0  0  0  0  0  0  0  0  0  0  0  0
   11.7140    4.4260   23.4300 C   0  0  2  0  0  0  0  0  0  0  0  0
   12.4530    4.4960   22.1400 N   0  0  0  0  0  0  0  0  0  0  0  0
   11.7020    2.9990   24.0390 C   0  0  0  0  0  0  0  0  0  0  0  0
   11.3310    1.8120   23.1670 C   0  0  0  0  0  0  0  0  0  0  0  0
   12.3350    0.9180   22.7470 C   0  0  0  0  0  0  0  0  0  0  0  0
   12.0040   -0.2480   22.0390 C   0  0  0  0  0  0  0  0  0  0  0  0
   10.6600   -0.5340   21.7640 C   0  0  0  0  0  0  0  0  0  0  0  0
    9.6550    0.3410   22.2020 C   0  0  0  0  0  0  0  0  0  0  0  0
    8.3090    0.0890   21.8840 N   0  0  0  0  0  0  0  0  0  0  0  0
    7.8170    0.1400   20.6150 C   0  0  0  0  0  0  0  0  0  0  0  0
    8.5130    0.2170   19.6230 O   0  0  0  0  0  0  0  0  0  0  0  0
    6.4530    0.1830   20.5660 N   0  0  0  0  0  0  0  0  0  0  0  0
    5.7260    0.6810   19.4610 C   0  0  0  0  0  0  0  0  0  0  0  0
    4.7730    1.6820   19.6810 C   0  0  0  0  0  0  0  0  0  0  0  0
    4.2080    2.2990   18.5590 C   0  0  0  0  0  0  0  0  0  0  0  0
    4.6330    1.9260   17.2770 C   0  0  0  0  0  0  0  0  0  0  0  0
    5.5110    0.9220   17.0550 N   0  0  0  0  0  0  0  0  0  0  0  0
    6.0440    0.3180   18.1340 C   0  0  0  0  0  0  0  0  0  0  0  0
    9.9870    1.5070   22.9060 C   0  0  0  0  0  0  0  0  0  0  0  0
  1  2  1  0
  2  3  1  0
  3  4  2  0
  3  5  1  0
  5  6  1  6
  5  7  1  0
  7  8  1  0
  8 23  2  0
  8  9  1  0
  9 10  2  0
 10 11  1  0
 11 12  2  0
 12 13  1  0
 12 23  1  0
 13 14  1  0
 14 15  2  0
 14 16  1  0
 16 17  1  0
 17 18  2  0
 17 22  1  0
 18 19  1  0
 19 20  2  0
 20 21  1  0
 21 22  2  0
M  END
>  <original SMILES>  (709) 
CNC(=O)C(N)Cc1cccc(NC(=O)Nc2cccnc2)c1

>  <AutoDock Predicted Affinity>  (709) 
-5.644303

>  <ref_pdb>  (709) 
x0434_0

>  <ref_mols>  (709) 
x0434_0

>  <creator>  (709) 
Will Poole

>  <energy minimised>  (709) 
True

$$$$
WPC2111_minimised.pdb
     RDKit          3D

 23 24  0  0  0  0  0  0  0  0999 V2000
    8.2070    5.4580   22.1180 C   0  0  0  0  0  0  0  0  0  0  0  0
    9.1660    4.5980   22.8090 N   0  0  0  0  0  0  0  0  0  0  0  0
   10.1460    5.0950   23.6320 C   0  0  0  0  0  0  0  0  0  0  0  0
   10.1660    6.2500   24.0080 O   0  0  0  0  0  0  0  0  0  0  0  0
   11.2130    4.0930   24.0340 C   0  0  0  0  0  0  0  0  0  0  0  0
   12.0360    3.5880   22.8330 C   0  0  0  0  0  0  0  0  0  0  0  0
   13.1270    2.2040   23.3480 S   0  0  0  0  0  0  0  0  0  0  0  0
   12.2960    0.7010   22.8930 C   0  0  0  0  0  0  0  0  0  0  0  0
   13.0790   -0.4310   22.6350 C   0  0  0  0  0  0  0  0  0  0  0  0
   12.4680   -1.6600   22.3430 C   0  0  0  0  0  0  0  0  0  0  0  0
   11.0700   -1.7430   22.2470 C   0  0  0  0  0  0  0  0  0  0  0  0
   10.2900   -0.5960   22.4470 C   0  0  0  0  0  0  0  0  0  0  0  0
    8.9030   -0.6280   22.1980 N   0  0  0  0  0  0  0  0  0  0  0  0
    8.3250    0.0450   21.1590 C   0  0  0  0  0  0  0  0  0  0  0  0
    8.9470    0.7760   20.4160 O   0  0  0  0  0  0  0  0  0  0  0  0
    6.9860   -0.1760   20.9960 N   0  0  0  0  0  0  0  0  0  0  0  0
    6.2290    0.3660   19.9270 C   0  0  0  0  0  0  0  0  0  0  0  0
    5.2450    1.3290   20.1810 C   0  0  0  0  0  0  0  0  0  0  0  0
    4.6340    1.9410   19.0770 C   0  0  0  0  0  0  0  0  0  0  0  0
    5.0180    1.5760   17.7770 C   0  0  0  0  0  0  0  0  0  0  0  0
    5.9340    0.6150   17.5240 N   0  0  0  0  0  0  0  0  0  0  0  0
    6.5430    0.0500   18.5870 C   0  0  0  0  0  0  0  0  0  0  0  0
   10.9000    0.6170   22.7940 C   0  0  0  0  0  0  0  0  0  0  0  0
  1  2  1  0
  2  3  1  0
  3  4  2  0
  3  5  1  0
  5  6  1  0
  6  7  1  0
  7  8  1  0
  8 23  2  0
  8  9  1  0
  9 10  2  0
 10 11  1  0
 11 12  2  0
 12 13  1  0
 12 23  1  0
 13 14  1  0
 14 15  2  0
 14 16  1  0
 16 17  1  0
 17 18  2  0
 17 22  1  0
 18 19  1  0
 19 20  2  0
 20 21  1  0
 21 22  2  0
M  END
>  <original SMILES>  (710) 
CNC(=O)CCSc1cccc(NC(=O)Nc2cccnc2)c1

>  <AutoDock Predicted Affinity>  (710) 
-5.451918

>  <ref_pdb>  (710) 
x0434_0

>  <ref_mols>  (710) 
x0434_0

>  <creator>  (710) 
Will Poole

>  <energy minimised>  (710) 
True

$$$$
WPC1759_minimised.pdb
     RDKit          3D

 22 23  0  0  0  0  0  0  0  0999 V2000
   13.8660    5.4030   21.8980 C   0  0  0  0  0  0  0  0  0  0  0  0
   12.5000    4.9970   22.2420 N   0  0  0  0  0  0  0  0  0  0  0  0
   12.0850    4.8650   23.5410 C   0  0  0  0  0  0  0  0  0  0  0  0
   12.7980    5.1760   24.4760 O   0  0  0  0  0  0  0  0  0  0  0  0
   10.6920    4.2880   23.7560 C   0  0  0  0  0  0  0  0  0  0  0  0
   10.7480    2.9460   24.5180 C   0  0  0  0  0  0  0  0  0  0  0  0
   10.8600    1.7290   23.6200 C   0  0  0  0  0  0  0  0  0  0  0  0
   12.1050    1.2150   23.2160 C   0  0  0  0  0  0  0  0  0  0  0  0
   12.1620    0.0750   22.3950 C   0  0  0  0  0  0  0  0  0  0  0  0
   10.9750   -0.5540   21.9780 C   0  0  0  0  0  0  0  0  0  0  0  0
    9.7360   -0.0420   22.3910 C   0  0  0  0  0  0  0  0  0  0  0  0
    8.5180   -0.5760   21.9270 N   0  0  0  0  0  0  0  0  0  0  0  0
    8.0030   -0.2660   20.7020 C   0  0  0  0  0  0  0  0  0  0  0  0
    8.6670    0.1700   19.7850 O   0  0  0  0  0  0  0  0  0  0  0  0
    6.6430   -0.3910   20.6180 N   0  0  0  0  0  0  0  0  0  0  0  0
    5.8890    0.2240   19.5890 C   0  0  0  0  0  0  0  0  0  0  0  0
    4.9570    1.2160   19.9200 C   0  0  0  0  0  0  0  0  0  0  0  0
    4.3810    1.9440   18.8700 C   0  0  0  0  0  0  0  0  0  0  0  0
    4.7590    1.6710   17.5470 C   0  0  0  0  0  0  0  0  0  0  0  0
    5.6270    0.6860   17.2200 N   0  0  0  0  0  0  0  0  0  0  0  0
    6.1880   -0.0070   18.2300 C   0  0  0  0  0  0  0  0  0  0  0  0
    9.6820    1.0920   23.2070 C   0  0  0  0  0  0  0  0  0  0  0  0
  1  2  1  0
  2  3  1  0
  3  4  2  0
  3  5  1  0
  5  6  1  0
  6  7  1  0
  7 22  2  0
  7  8  1  0
  8  9  2  0
  9 10  1  0
 10 11  2  0
 11 12  1  0
 11 22  1  0
 12 13  1  0
 13 14  2  0
 13 15  1  0
 15 16  1  0
 16 17  2  0
 16 21  1  0
 17 18  1  0
 18 19  2  0
 19 20  1  0
 20 21  2  0
M  END
>  <original SMILES>  (711) 
CNC(=O)CCc1cccc(NC(=O)Nc2cccnc2)c1

>  <AutoDock Predicted Affinity>  (711) 
-6.67579

>  <ref_pdb>  (711) 
x0434_0

>  <ref_mols>  (711) 
x0434_0

>  <creator>  (711) 
Will Poole

>  <energy minimised>  (711) 
True

$$$$
WPC1122_minimised.pdb
     RDKit          3D

 22 23  0  0  0  0  0  0  0  0999 V2000
   13.9190    5.8540   21.7970 C   0  0  0  0  0  0  0  0  0  0  0  0
   12.7100    5.0520   21.9930 N   0  0  0  0  0  0  0  0  0  0  0  0
   12.3780    4.5110   23.1940 C   0  0  0  0  0  0  0  0  0  0  0  0
   12.9270    4.7870   24.2430 O   0  0  0  0  0  0  0  0  0  0  0  0
   11.6410    3.4090   22.9390 O   0  0  0  0  0  0  0  0  0  0  0  0
   11.5110    2.4090   23.9550 C   0  0  0  0  0  0  0  0  0  0  0  0
   11.1520    1.1100   23.2660 C   0  0  0  0  0  0  0  0  0  0  0  0
   12.1650    0.2380   22.8240 C   0  0  0  0  0  0  0  0  0  0  0  0
   11.8330   -0.9360   22.1280 C   0  0  0  0  0  0  0  0  0  0  0  0
   10.4870   -1.2270   21.8540 C   0  0  0  0  0  0  0  0  0  0  0  0
    9.4810   -0.3490   22.2810 C   0  0  0  0  0  0  0  0  0  0  0  0
    8.1470   -0.5330   21.8790 N   0  0  0  0  0  0  0  0  0  0  0  0
    7.7170   -0.2390   20.6180 C   0  0  0  0  0  0  0  0  0  0  0  0
    8.4610   -0.0520   19.6760 O   0  0  0  0  0  0  0  0  0  0  0  0
    6.3590   -0.1080   20.5300 N   0  0  0  0  0  0  0  0  0  0  0  0
    5.6890    0.5070   19.4480 C   0  0  0  0  0  0  0  0  0  0  0  0
    4.7430    1.5040   19.7130 C   0  0  0  0  0  0  0  0  0  0  0  0
    4.2130    2.2050   18.6230 C   0  0  0  0  0  0  0  0  0  0  0  0
    4.6600    1.9110   17.3270 C   0  0  0  0  0  0  0  0  0  0  0  0
    5.5380    0.9180   17.0590 N   0  0  0  0  0  0  0  0  0  0  0  0
    6.0430    0.2410   18.1080 C   0  0  0  0  0  0  0  0  0  0  0  0
    9.8100    0.8110   22.9920 C   0  0  0  0  0  0  0  0  0  0  0  0
  1  2  1  0
  2  3  1  0
  3  4  2  0
  3  5  1  0
  5  6  1  0
  6  7  1  0
  7 22  2  0
  7  8  1  0
  8  9  2  0
  9 10  1  0
 10 11  2  0
 11 12  1  0
 11 22  1  0
 12 13  1  0
 13 14  2  0
 13 15  1  0
 15 16  1  0
 16 17  2  0
 16 21  1  0
 17 18  1  0
 18 19  2  0
 19 20  1  0
 20 21  2  0
M  END
>  <original SMILES>  (712) 
CNC(=O)OCc1cccc(NC(=O)Nc2cccnc2)c1

>  <AutoDock Predicted Affinity>  (712) 
-6.59347

>  <ref_pdb>  (712) 
x0434_0

>  <ref_mols>  (712) 
x0434_0

>  <creator>  (712) 
Will Poole

>  <energy minimised>  (712) 
True

$$$$
WPC1921_minimised.pdb
     RDKit          3D

 23 24  0  0  0  0  0  0  0  0999 V2000
    8.2760    5.0630   21.8980 C   0  0  0  0  0  0  0  0  0  0  0  0
    9.1070    5.6590   22.9590 N   0  0  0  0  0  0  0  0  0  0  0  0
   10.3470    5.2390   23.3700 C   0  0  0  0  0  0  0  0  0  0  0  0
   11.1390    6.0390   24.5790 S   0  0  0  0  0  0  0  0  0  0  0  0
   10.8940    4.1980   22.6760 N   0  0  0  0  0  0  0  0  0  0  0  0
   12.2550    3.6880   22.8710 C   0  0  0  0  0  0  0  0  0  0  0  0
   12.3030    2.3710   23.6730 C   0  0  0  0  0  0  0  0  0  0  0  0
   11.7250    1.1550   22.9720 C   0  0  0  0  0  0  0  0  0  0  0  0
   12.5840    0.1620   22.4670 C   0  0  0  0  0  0  0  0  0  0  0  0
   12.0590   -0.9800   21.8440 C   0  0  0  0  0  0  0  0  0  0  0  0
   10.6710   -1.1300   21.7190 C   0  0  0  0  0  0  0  0  0  0  0  0
    9.8120   -0.1400   22.2180 C   0  0  0  0  0  0  0  0  0  0  0  0
    8.4290   -0.2210   21.9670 N   0  0  0  0  0  0  0  0  0  0  0  0
    7.8860    0.0550   20.7460 C   0  0  0  0  0  0  0  0  0  0  0  0
    8.5530    0.3000   19.7610 O   0  0  0  0  0  0  0  0  0  0  0  0
    6.5190    0.0880   20.7200 N   0  0  0  0  0  0  0  0  0  0  0  0
    5.7740    0.5990   19.6300 C   0  0  0  0  0  0  0  0  0  0  0  0
    4.8270    1.6030   19.8620 C   0  0  0  0  0  0  0  0  0  0  0  0
    4.2520    2.2240   18.7460 C   0  0  0  0  0  0  0  0  0  0  0  0
    4.6500    1.8400   17.4570 C   0  0  0  0  0  0  0  0  0  0  0  0
    5.5190    0.8300   17.2240 N   0  0  0  0  0  0  0  0  0  0  0  0
    6.0720    0.2340   18.2990 C   0  0  0  0  0  0  0  0  0  0  0  0
   10.3360    0.9930   22.8550 C   0  0  0  0  0  0  0  0  0  0  0  0
  1  2  1  0
  2  3  1  0
  3  4  2  0
  3  5  1  0
  5  6  1  0
  6  7  1  0
  7  8  1  0
  8 23  2  0
  8  9  1  0
  9 10  2  0
 10 11  1  0
 11 12  2  0
 12 13  1  0
 12 23  1  0
 13 14  1  0
 14 15  2  0
 14 16  1  0
 16 17  1  0
 17 18  2  0
 17 22  1  0
 18 19  1  0
 19 20  2  0
 20 21  1  0
 21 22  2  0
M  END
>  <original SMILES>  (713) 
CNC(=S)NCCc1cccc(NC(=O)Nc2cccnc2)c1

>  <AutoDock Predicted Affinity>  (713) 
-5.156105

>  <ref_pdb>  (713) 
x0434_0

>  <ref_mols>  (713) 
x0434_0

>  <creator>  (713) 
Will Poole

>  <energy minimised>  (713) 
True

$$$$
WPC2561_minimised.pdb
     RDKit          3D

 23 24  0  0  1  0  0  0  0  0999 V2000
   12.2910    6.3060   24.6260 C   0  0  0  0  0  0  0  0  0  0  0  0
   10.8770    6.1730   24.2320 N   0  0  0  0  0  0  0  0  0  0  0  0
   10.6000    5.2520   23.1070 C   0  0  2  0  0  0  0  0  0  0  0  0
    9.0730    5.2120   22.9050 C   0  0  0  0  0  0  0  0  0  0  0  0
   11.2010    3.8210   23.2580 C   0  0  0  0  0  0  0  0  0  0  0  0
   10.7580    3.1360   24.4900 N   0  0  0  0  0  0  0  0  0  0  0  0
   11.3170    1.7930   24.6960 C   0  0  0  0  0  0  0  0  0  0  0  0
   10.9900    0.7980   23.6040 C   0  0  0  0  0  0  0  0  0  0  0  0
   12.0240    0.1260   22.9260 C   0  0  0  0  0  0  0  0  0  0  0  0
   11.7200   -0.8500   21.9640 C   0  0  0  0  0  0  0  0  0  0  0  0
   10.3790   -1.1230   21.6570 C   0  0  0  0  0  0  0  0  0  0  0  0
    9.3520   -0.4140   22.2930 C   0  0  0  0  0  0  0  0  0  0  0  0
    8.0200   -0.5420   21.8620 N   0  0  0  0  0  0  0  0  0  0  0  0
    7.6190   -0.2240   20.5970 C   0  0  0  0  0  0  0  0  0  0  0  0
    8.3790   -0.0400   19.6650 O   0  0  0  0  0  0  0  0  0  0  0  0
    6.2660   -0.0650   20.4910 N   0  0  0  0  0  0  0  0  0  0  0  0
    5.6210    0.5610   19.4010 C   0  0  0  0  0  0  0  0  0  0  0  0
    4.6790    1.5660   19.6540 C   0  0  0  0  0  0  0  0  0  0  0  0
    4.1750    2.2740   18.5560 C   0  0  0  0  0  0  0  0  0  0  0  0
    4.6410    1.9790   17.2670 C   0  0  0  0  0  0  0  0  0  0  0  0
    5.5160    0.9800   17.0120 N   0  0  0  0  0  0  0  0  0  0  0  0
    5.9950    0.2940   18.0670 C   0  0  0  0  0  0  0  0  0  0  0  0
    9.6520    0.5250   23.2830 C   0  0  0  0  0  0  0  0  0  0  0  0
  1  2  1  0
  2  3  1  0
  3  4  1  1
  3  5  1  0
  5  6  1  0
  6  7  1  0
  7  8  1  0
  8 23  2  0
  8  9  1  0
  9 10  2  0
 10 11  1  0
 11 12  2  0
 12 13  1  0
 12 23  1  0
 13 14  1  0
 14 15  2  0
 14 16  1  0
 16 17  1  0
 17 18  2  0
 17 22  1  0
 18 19  1  0
 19 20  2  0
 20 21  1  0
 21 22  2  0
M  END
>  <original SMILES>  (714) 
CNC(C)CNCc1cccc(NC(=O)Nc2cccnc2)c1

>  <AutoDock Predicted Affinity>  (714) 
-5.31865

>  <ref_pdb>  (714) 
x0434_0

>  <ref_mols>  (714) 
x0434_0

>  <creator>  (714) 
Will Poole

>  <energy minimised>  (714) 
True

$$$$
WPC1393_minimised.pdb
     RDKit          3D

 21 22  0  0  1  0  0  0  0  0999 V2000
    9.3080    5.9400   22.8900 C   0  0  0  0  0  0  0  0  0  0  0  0
    9.5550    4.5570   23.3180 N   0  0  0  0  0  0  0  0  0  0  0  0
   10.8300    4.3210   24.0120 C   0  0  2  0  0  0  0  0  0  0  0  0
   12.0470    4.5650   23.0950 C   0  0  0  0  0  0  0  0  0  0  0  0
   10.8600    2.9000   24.6160 C   0  0  0  0  0  0  0  0  0  0  0  0
   10.8190    1.7410   23.6330 C   0  0  0  0  0  0  0  0  0  0  0  0
   12.0020    1.1450   23.1580 C   0  0  0  0  0  0  0  0  0  0  0  0
   11.9390    0.0460   22.2840 C   0  0  0  0  0  0  0  0  0  0  0  0
   10.6910   -0.4620   21.8880 C   0  0  0  0  0  0  0  0  0  0  0  0
    9.5130    0.1280   22.3700 C   0  0  0  0  0  0  0  0  0  0  0  0
    8.2440   -0.2960   21.9360 N   0  0  0  0  0  0  0  0  0  0  0  0
    7.7970   -0.1320   20.6580 C   0  0  0  0  0  0  0  0  0  0  0  0
    8.5200    0.0720   19.7040 O   0  0  0  0  0  0  0  0  0  0  0  0
    6.4330   -0.1280   20.5680 N   0  0  0  0  0  0  0  0  0  0  0  0
    5.7280    0.4510   19.4880 C   0  0  0  0  0  0  0  0  0  0  0  0
    4.7820    1.4480   19.7570 C   0  0  0  0  0  0  0  0  0  0  0  0
    4.2300    2.1310   18.6660 C   0  0  0  0  0  0  0  0  0  0  0  0
    4.6490    1.8140   17.3660 C   0  0  0  0  0  0  0  0  0  0  0  0
    5.5270    0.8210   17.0970 N   0  0  0  0  0  0  0  0  0  0  0  0
    6.0590    0.1650   18.1470 C   0  0  0  0  0  0  0  0  0  0  0  0
    9.5780    1.2220   23.2400 C   0  0  0  0  0  0  0  0  0  0  0  0
  1  2  1  0
  2  3  1  0
  3  4  1  6
  3  5  1  0
  5  6  1  0
  6 21  2  0
  6  7  1  0
  7  8  2  0
  8  9  1  0
  9 10  2  0
 10 11  1  0
 10 21  1  0
 11 12  1  0
 12 13  2  0
 12 14  1  0
 14 15  1  0
 15 16  2  0
 15 20  1  0
 16 17  1  0
 17 18  2  0
 18 19  1  0
 19 20  2  0
M  END
>  <original SMILES>  (715) 
CNC(C)Cc1cccc(NC(=O)Nc2cccnc2)c1

>  <AutoDock Predicted Affinity>  (715) 
-5.671746

>  <ref_pdb>  (715) 
x0434_0

>  <ref_mols>  (715) 
x0434_0

>  <creator>  (715) 
Will Poole

>  <energy minimised>  (715) 
True

$$$$
WPC2141_minimised.pdb
     RDKit          3D

 23 24  0  0  1  0  0  0  0  0999 V2000
    8.9720    5.7260   22.6130 C   0  0  0  0  0  0  0  0  0  0  0  0
    9.4120    4.3810   23.0220 N   0  0  0  0  0  0  0  0  0  0  0  0
   10.5850    4.3300   23.9450 C   0  0  1  0  0  0  0  0  0  0  0  0
   10.7400    2.9230   24.5600 C   0  0  0  0  0  0  0  0  0  0  0  0
   10.8110    1.7650   23.5820 C   0  0  0  0  0  0  0  0  0  0  0  0
   12.0410    1.2550   23.1290 C   0  0  0  0  0  0  0  0  0  0  0  0
   12.0670    0.1330   22.2810 C   0  0  0  0  0  0  0  0  0  0  0  0
   10.8640   -0.4770   21.8850 C   0  0  0  0  0  0  0  0  0  0  0  0
    9.6400    0.0350   22.3400 C   0  0  0  0  0  0  0  0  0  0  0  0
    8.4070   -0.4810   21.8980 N   0  0  0  0  0  0  0  0  0  0  0  0
    7.9060   -0.2240   20.6560 C   0  0  0  0  0  0  0  0  0  0  0  0
    8.5860    0.1350   19.7170 O   0  0  0  0  0  0  0  0  0  0  0  0
    6.5420   -0.3020   20.5830 N   0  0  0  0  0  0  0  0  0  0  0  0
    5.8010    0.3030   19.5410 C   0  0  0  0  0  0  0  0  0  0  0  0
    4.8710    1.3030   19.8520 C   0  0  0  0  0  0  0  0  0  0  0  0
    4.3020    2.0170   18.7890 C   0  0  0  0  0  0  0  0  0  0  0  0
    4.6880    1.7240   17.4730 C   0  0  0  0  0  0  0  0  0  0  0  0
    5.5540    0.7320   17.1640 N   0  0  0  0  0  0  0  0  0  0  0  0
    6.1040    0.0490   18.1870 C   0  0  0  0  0  0  0  0  0  0  0  0
    9.6170    1.1470   23.1870 C   0  0  0  0  0  0  0  0  0  0  0  0
   11.9600    4.8370   23.4380 C   0  0  0  0  0  0  0  0  0  0  0  0
   12.8600    5.1280   24.2050 O   0  0  0  0  0  0  0  0  0  0  0  0
   12.1100    5.0020   22.1120 O   0  0  0  0  0  0  0  0  0  0  0  0
  1  2  1  0
  2  3  1  0
  3 21  1  0
  3  4  1  6
  4  5  1  0
  5 20  2  0
  5  6  1  0
  6  7  2  0
  7  8  1  0
  8  9  2  0
  9 10  1  0
  9 20  1  0
 10 11  1  0
 11 12  2  0
 11 13  1  0
 13 14  1  0
 14 15  2  0
 14 19  1  0
 15 16  1  0
 16 17  2  0
 17 18  1  0
 18 19  2  0
 21 22  2  0
 21 23  1  0
M  END
>  <original SMILES>  (716) 
CNC(Cc1cccc(NC(=O)Nc2cccnc2)c1)C(=O)O

>  <AutoDock Predicted Affinity>  (716) 
-6.246515

>  <ref_pdb>  (716) 
x0434_0

>  <ref_mols>  (716) 
x0434_0

>  <creator>  (716) 
Will Poole

>  <energy minimised>  (716) 
True

$$$$
WPC1305_minimised.pdb
     RDKit          3D

 20 21  0  0  0  0  0  0  0  0999 V2000
   12.7750    5.2330   23.0040 C   0  0  0  0  0  0  0  0  0  0  0  0
   11.3210    5.2360   22.7660 N   0  0  0  0  0  0  0  0  0  0  0  0
   10.4470    4.7740   23.8590 C   0  0  0  0  0  0  0  0  0  0  0  0
   10.8730    3.4400   24.5120 C   0  0  0  0  0  0  0  0  0  0  0  0
   10.8420    2.2090   23.6180 C   0  0  0  0  0  0  0  0  0  0  0  0
   12.0300    1.5740   23.2090 C   0  0  0  0  0  0  0  0  0  0  0  0
   11.9800    0.4130   22.4180 C   0  0  0  0  0  0  0  0  0  0  0  0
   10.7390   -0.1240   22.0400 C   0  0  0  0  0  0  0  0  0  0  0  0
    9.5540    0.4960   22.4670 C   0  0  0  0  0  0  0  0  0  0  0  0
    8.2920    0.0180   22.0670 N   0  0  0  0  0  0  0  0  0  0  0  0
    7.8500    0.0410   20.7770 C   0  0  0  0  0  0  0  0  0  0  0  0
    8.5770    0.1700   19.8120 O   0  0  0  0  0  0  0  0  0  0  0  0
    6.4870   -0.0020   20.6750 N   0  0  0  0  0  0  0  0  0  0  0  0
    5.7760    0.5090   19.5660 C   0  0  0  0  0  0  0  0  0  0  0  0
    4.8100    1.4980   19.7900 C   0  0  0  0  0  0  0  0  0  0  0  0
    4.2510    2.1270   18.6720 C   0  0  0  0  0  0  0  0  0  0  0  0
    4.6830    1.7670   17.3880 C   0  0  0  0  0  0  0  0  0  0  0  0
    5.5760    0.7780   17.1600 N   0  0  0  0  0  0  0  0  0  0  0  0
    6.1170    0.1740   18.2380 C   0  0  0  0  0  0  0  0  0  0  0  0
    9.6070    1.6540   23.2520 C   0  0  0  0  0  0  0  0  0  0  0  0
  1  2  1  0
  2  3  1  0
  3  4  1  0
  4  5  1  0
  5 20  2  0
  5  6  1  0
  6  7  2  0
  7  8  1  0
  8  9  2  0
  9 10  1  0
  9 20  1  0
 10 11  1  0
 11 12  2  0
 11 13  1  0
 13 14  1  0
 14 15  2  0
 14 19  1  0
 15 16  1  0
 16 17  2  0
 17 18  1  0
 18 19  2  0
M  END
>  <original SMILES>  (717) 
CNCCc1cccc(NC(=O)Nc2cccnc2)c1

>  <AutoDock Predicted Affinity>  (717) 
-5.69324

>  <ref_pdb>  (717) 
x0434_0

>  <ref_mols>  (717) 
x0434_0

>  <creator>  (717) 
Will Poole

>  <energy minimised>  (717) 
True

$$$$
WPC2229_minimised.pdb
     RDKit          3D

 19 20  0  0  0  0  0  0  0  0999 V2000
   13.0960    5.1070   22.3460 C   0  0  0  0  0  0  0  0  0  0  0  0
   11.6860    5.1760   22.7620 N   0  0  0  0  0  0  0  0  0  0  0  0
   11.3290    4.2810   23.8710 C   0  0  0  0  0  0  0  0  0  0  0  0
   11.2280    2.8160   23.4630 C   0  0  0  0  0  0  0  0  0  0  0  0
   12.3690    1.9990   23.3440 C   0  0  0  0  0  0  0  0  0  0  0  0
   12.2480    0.6540   22.9610 C   0  0  0  0  0  0  0  0  0  0  0  0
   10.9810    0.1080   22.7010 C   0  0  0  0  0  0  0  0  0  0  0  0
    9.8400    0.9130   22.8220 C   0  0  0  0  0  0  0  0  0  0  0  0
    8.5670    0.4130   22.4780 N   0  0  0  0  0  0  0  0  0  0  0  0
    8.1170    0.3490   21.1900 C   0  0  0  0  0  0  0  0  0  0  0  0
    8.8380    0.4900   20.2250 O   0  0  0  0  0  0  0  0  0  0  0  0
    6.7620    0.1950   21.0720 N   0  0  0  0  0  0  0  0  0  0  0  0
    6.0400    0.5540   19.9070 C   0  0  0  0  0  0  0  0  0  0  0  0
    5.0280    1.5140   20.0240 C   0  0  0  0  0  0  0  0  0  0  0  0
    4.4560    2.0070   18.8460 C   0  0  0  0  0  0  0  0  0  0  0  0
    4.9140    1.5390   17.6060 C   0  0  0  0  0  0  0  0  0  0  0  0
    5.8450    0.5670   17.4810 N   0  0  0  0  0  0  0  0  0  0  0  0
    6.4090    0.1040   18.6180 C   0  0  0  0  0  0  0  0  0  0  0  0
    9.9640    2.2600   23.1940 C   0  0  0  0  0  0  0  0  0  0  0  0
  1  2  1  0
  2  3  1  0
  3  4  1  0
  4 19  2  0
  4  5  1  0
  5  6  2  0
  6  7  1  0
  7  8  2  0
  8  9  1  0
  8 19  1  0
  9 10  1  0
 10 11  2  0
 10 12  1  0
 12 13  1  0
 13 14  2  0
 13 18  1  0
 14 15  1  0
 15 16  2  0
 16 17  1  0
 17 18  2  0
M  END
>  <original SMILES>  (718) 
CNCc1cccc(NC(=O)Nc2cccnc2)c1

>  <AutoDock Predicted Affinity>  (718) 
-5.8295

>  <ref_pdb>  (718) 
x0434_0

>  <ref_mols>  (718) 
x0434_0

>  <creator>  (718) 
Will Poole

>  <energy minimised>  (718) 
True

$$$$
WPC1472_minimised.pdb
     RDKit          3D

 23 24  0  0  1  0  0  0  0  0999 V2000
    8.9040    6.1200   22.4860 C   0  0  0  0  0  0  0  0  0  0  0  0
    9.9970    5.5200   23.1910 O   0  0  0  0  0  0  0  0  0  0  0  0
    9.9540    4.1690   23.3680 C   0  0  0  0  0  0  0  0  0  0  0  0
    8.9160    3.5280   23.3250 O   0  0  0  0  0  0  0  0  0  0  0  0
   11.2650    3.6790   23.9970 C   0  0  2  0  0  0  0  0  0  0  0  0
   12.4500    3.8890   23.0230 C   0  0  0  0  0  0  0  0  0  0  0  0
   11.1990    2.2270   24.5480 C   0  0  0  0  0  0  0  0  0  0  0  0
   11.0580    1.1130   23.5240 C   0  0  0  0  0  0  0  0  0  0  0  0
   12.1930    0.5150   22.9430 C   0  0  0  0  0  0  0  0  0  0  0  0
   12.0440   -0.5490   22.0370 C   0  0  0  0  0  0  0  0  0  0  0  0
   10.7580   -1.0030   21.7010 C   0  0  0  0  0  0  0  0  0  0  0  0
    9.6290   -0.3990   22.2710 C   0  0  0  0  0  0  0  0  0  0  0  0
    8.3250   -0.7160   21.8490 N   0  0  0  0  0  0  0  0  0  0  0  0
    7.8610   -0.4070   20.6020 C   0  0  0  0  0  0  0  0  0  0  0  0
    8.5770   -0.1860   19.6460 O   0  0  0  0  0  0  0  0  0  0  0  0
    6.4990   -0.2990   20.5470 N   0  0  0  0  0  0  0  0  0  0  0  0
    5.8020    0.3490   19.5000 C   0  0  0  0  0  0  0  0  0  0  0  0
    4.8840    1.3590   19.8140 C   0  0  0  0  0  0  0  0  0  0  0  0
    4.3320    2.0900   18.7540 C   0  0  0  0  0  0  0  0  0  0  0  0
    4.7220    1.8050   17.4370 C   0  0  0  0  0  0  0  0  0  0  0  0
    5.5730    0.8010   17.1250 N   0  0  0  0  0  0  0  0  0  0  0  0
    6.1070    0.1010   18.1450 C   0  0  0  0  0  0  0  0  0  0  0  0
    9.7830    0.6320   23.2000 C   0  0  0  0  0  0  0  0  0  0  0  0
  1  2  1  0
  2  3  1  0
  3  4  2  0
  3  5  1  0
  5  6  1  6
  5  7  1  0
  7  8  1  0
  8 23  2  0
  8  9  1  0
  9 10  2  0
 10 11  1  0
 11 12  2  0
 12 13  1  0
 12 23  1  0
 13 14  1  0
 14 15  2  0
 14 16  1  0
 16 17  1  0
 17 18  2  0
 17 22  1  0
 18 19  1  0
 19 20  2  0
 20 21  1  0
 21 22  2  0
M  END
>  <original SMILES>  (719) 
COC(=O)C(C)Cc1cccc(NC(=O)Nc2cccnc2)c1

>  <AutoDock Predicted Affinity>  (719) 
-5.729065

>  <ref_pdb>  (719) 
x0434_0

>  <ref_mols>  (719) 
x0434_0

>  <creator>  (719) 
Will Poole

>  <energy minimised>  (719) 
True

$$$$
WPC1599_minimised.pdb
     RDKit          3D

 24 25  0  0  0  0  0  0  0  0999 V2000
   12.5520    7.4140   25.7480 C   0  0  0  0  0  0  0  0  0  0  0  0
   11.7200    6.7220   24.7950 O   0  0  0  0  0  0  0  0  0  0  0  0
   12.2420    5.6380   24.1570 C   0  0  0  0  0  0  0  0  0  0  0  0
   13.3300    5.1610   24.4130 O   0  0  0  0  0  0  0  0  0  0  0  0
   11.2500    5.0010   23.1910 C   0  0  0  0  0  0  0  0  0  0  0  0
   11.3420    3.4580   23.1780 C   0  0  0  0  0  0  0  0  0  0  0  0
   10.8610    2.8310   24.5040 C   0  0  0  0  0  0  0  0  0  0  0  0
   11.3950    1.3990   24.7120 C   0  0  0  0  0  0  0  0  0  0  0  0
   11.0220    0.4470   23.5980 C   0  0  0  0  0  0  0  0  0  0  0  0
   12.0190   -0.1820   22.8330 C   0  0  0  0  0  0  0  0  0  0  0  0
   11.6640   -1.1100   21.8430 C   0  0  0  0  0  0  0  0  0  0  0  0
   10.3080   -1.3570   21.5840 C   0  0  0  0  0  0  0  0  0  0  0  0
    9.3160   -0.6640   22.2880 C   0  0  0  0  0  0  0  0  0  0  0  0
    7.9750   -0.7100   21.8700 N   0  0  0  0  0  0  0  0  0  0  0  0
    7.5790   -0.3160   20.6230 C   0  0  0  0  0  0  0  0  0  0  0  0
    8.3370   -0.1310   19.6910 O   0  0  0  0  0  0  0  0  0  0  0  0
    6.2350   -0.0920   20.5370 N   0  0  0  0  0  0  0  0  0  0  0  0
    5.5950    0.5480   19.4510 C   0  0  0  0  0  0  0  0  0  0  0  0
    4.6620    1.5590   19.7100 C   0  0  0  0  0  0  0  0  0  0  0  0
    4.1460    2.2620   18.6140 C   0  0  0  0  0  0  0  0  0  0  0  0
    4.5900    1.9540   17.3200 C   0  0  0  0  0  0  0  0  0  0  0  0
    5.4580    0.9500   17.0600 N   0  0  0  0  0  0  0  0  0  0  0  0
    5.9510    0.2720   18.1140 C   0  0  0  0  0  0  0  0  0  0  0  0
    9.6690    0.2060   23.3210 C   0  0  0  0  0  0  0  0  0  0  0  0
  1  2  1  0
  2  3  1  0
  3  4  2  0
  3  5  1  0
  5  6  1  0
  6  7  1  0
  7  8  1  0
  8  9  1  0
  9 24  2  0
  9 10  1  0
 10 11  2  0
 11 12  1  0
 12 13  2  0
 13 14  1  0
 13 24  1  0
 14 15  1  0
 15 16  2  0
 15 17  1  0
 17 18  1  0
 18 19  2  0
 18 23  1  0
 19 20  1  0
 20 21  2  0
 21 22  1  0
 22 23  2  0
M  END
>  <original SMILES>  (720) 
COC(=O)CCCCc1cccc(NC(=O)Nc2cccnc2)c1

>  <AutoDock Predicted Affinity>  (720) 
-5.71691

>  <ref_pdb>  (720) 
x0434_0

>  <ref_mols>  (720) 
x0434_0

>  <creator>  (720) 
Will Poole

>  <energy minimised>  (720) 
True

$$$$
WPC1785_minimised.pdb
     RDKit          3D

 23 24  0  0  0  0  0  0  0  0999 V2000
   12.7320    7.0240   25.7190 C   0  0  0  0  0  0  0  0  0  0  0  0
   12.6430    5.7700   25.0170 O   0  0  0  0  0  0  0  0  0  0  0  0
   11.6410    5.6010   24.1070 C   0  0  0  0  0  0  0  0  0  0  0  0
   10.7210    6.3870   23.9610 O   0  0  0  0  0  0  0  0  0  0  0  0
   11.6230    4.1650   23.5940 C   0  0  0  0  0  0  0  0  0  0  0  0
   10.7040    3.2800   24.4700 C   0  0  0  0  0  0  0  0  0  0  0  0
   11.2440    1.8510   24.7010 C   0  0  0  0  0  0  0  0  0  0  0  0
   10.9900    0.8720   23.5770 C   0  0  0  0  0  0  0  0  0  0  0  0
   12.0600    0.2360   22.9220 C   0  0  0  0  0  0  0  0  0  0  0  0
   11.8060   -0.7640   21.9690 C   0  0  0  0  0  0  0  0  0  0  0  0
   10.4800   -1.1000   21.6540 C   0  0  0  0  0  0  0  0  0  0  0  0
    9.4170   -0.4270   22.2690 C   0  0  0  0  0  0  0  0  0  0  0  0
    8.0910   -0.6230   21.8450 N   0  0  0  0  0  0  0  0  0  0  0  0
    7.6660   -0.3230   20.5830 C   0  0  0  0  0  0  0  0  0  0  0  0
    8.4080   -0.1440   19.6370 O   0  0  0  0  0  0  0  0  0  0  0  0
    6.3120   -0.1670   20.5020 N   0  0  0  0  0  0  0  0  0  0  0  0
    5.6490    0.4680   19.4260 C   0  0  0  0  0  0  0  0  0  0  0  0
    4.7200    1.4790   19.7020 C   0  0  0  0  0  0  0  0  0  0  0  0
    4.1930    2.1920   18.6170 C   0  0  0  0  0  0  0  0  0  0  0  0
    4.6260    1.8930   17.3170 C   0  0  0  0  0  0  0  0  0  0  0  0
    5.4900    0.8910   17.0410 N   0  0  0  0  0  0  0  0  0  0  0  0
    5.9910    0.2020   18.0840 C   0  0  0  0  0  0  0  0  0  0  0  0
    9.6700    0.5370   23.2470 C   0  0  0  0  0  0  0  0  0  0  0  0
  1  2  1  0
  2  3  1  0
  3  4  2  0
  3  5  1  0
  5  6  1  0
  6  7  1  0
  7  8  1  0
  8 23  2  0
  8  9  1  0
  9 10  2  0
 10 11  1  0
 11 12  2  0
 12 13  1  0
 12 23  1  0
 13 14  1  0
 14 15  2  0
 14 16  1  0
 16 17  1  0
 17 18  2  0
 17 22  1  0
 18 19  1  0
 19 20  2  0
 20 21  1  0
 21 22  2  0
M  END
>  <original SMILES>  (721) 
COC(=O)CCCc1cccc(NC(=O)Nc2cccnc2)c1

>  <AutoDock Predicted Affinity>  (721) 
-5.75965

>  <ref_pdb>  (721) 
x0434_0

>  <ref_mols>  (721) 
x0434_0

>  <creator>  (721) 
Will Poole

>  <energy minimised>  (721) 
True

$$$$
WPC1687_minimised.pdb
     RDKit          3D

 22 23  0  0  0  0  0  0  0  0999 V2000
   14.2560    5.5480   21.9630 C   0  0  0  0  0  0  0  0  0  0  0  0
   12.9230    5.0270   22.0720 O   0  0  0  0  0  0  0  0  0  0  0  0
   12.3870    4.8940   23.3150 C   0  0  0  0  0  0  0  0  0  0  0  0
   12.9500    5.2130   24.3500 O   0  0  0  0  0  0  0  0  0  0  0  0
   11.0110    4.2450   23.2790 C   0  0  0  0  0  0  0  0  0  0  0  0
   10.8700    3.0650   24.2660 C   0  0  0  0  0  0  0  0  0  0  0  0
   10.9390    1.7260   23.5580 C   0  0  0  0  0  0  0  0  0  0  0  0
   12.1690    1.1390   23.2110 C   0  0  0  0  0  0  0  0  0  0  0  0
   12.1930   -0.0620   22.4790 C   0  0  0  0  0  0  0  0  0  0  0  0
   10.9880   -0.6790   22.0970 C   0  0  0  0  0  0  0  0  0  0  0  0
    9.7640   -0.0930   22.4520 C   0  0  0  0  0  0  0  0  0  0  0  0
    8.5370   -0.6020   21.9880 N   0  0  0  0  0  0  0  0  0  0  0  0
    8.0080   -0.2400   20.7820 C   0  0  0  0  0  0  0  0  0  0  0  0
    8.6600    0.2550   19.8850 O   0  0  0  0  0  0  0  0  0  0  0  0
    6.6530   -0.4000   20.6880 N   0  0  0  0  0  0  0  0  0  0  0  0
    5.8940    0.1900   19.6500 C   0  0  0  0  0  0  0  0  0  0  0  0
    4.9590    1.1860   19.9620 C   0  0  0  0  0  0  0  0  0  0  0  0
    4.3680    1.8810   18.8970 C   0  0  0  0  0  0  0  0  0  0  0  0
    4.7340    1.5700   17.5780 C   0  0  0  0  0  0  0  0  0  0  0  0
    5.6080    0.5860   17.2700 N   0  0  0  0  0  0  0  0  0  0  0  0
    6.1870   -0.0720   18.2950 C   0  0  0  0  0  0  0  0  0  0  0  0
    9.7430    1.1020   23.1780 C   0  0  0  0  0  0  0  0  0  0  0  0
  1  2  1  0
  2  3  1  0
  3  4  2  0
  3  5  1  0
  5  6  1  0
  6  7  1  0
  7 22  2  0
  7  8  1  0
  8  9  2  0
  9 10  1  0
 10 11  2  0
 11 12  1  0
 11 22  1  0
 12 13  1  0
 13 14  2  0
 13 15  1  0
 15 16  1  0
 16 17  2  0
 16 21  1  0
 17 18  1  0
 18 19  2  0
 19 20  1  0
 20 21  2  0
M  END
>  <original SMILES>  (722) 
COC(=O)CCc1cccc(NC(=O)Nc2cccnc2)c1

>  <AutoDock Predicted Affinity>  (722) 
-5.818105

>  <ref_pdb>  (722) 
x0434_0

>  <ref_mols>  (722) 
x0434_0

>  <creator>  (722) 
Will Poole

>  <energy minimised>  (722) 
True

$$$$
WPC1154_minimised.pdb
     RDKit          3D

 22 23  0  0  0  0  0  0  0  0999 V2000
   14.2270    5.5380   21.9770 C   0  0  0  0  0  0  0  0  0  0  0  0
   12.8650    5.1000   22.0980 O   0  0  0  0  0  0  0  0  0  0  0  0
   12.3240    5.0200   23.3440 C   0  0  0  0  0  0  0  0  0  0  0  0
   12.9070    5.3160   24.3730 O   0  0  0  0  0  0  0  0  0  0  0  0
   10.9090    4.4740   23.3060 C   0  0  0  0  0  0  0  0  0  0  0  0
   10.6340    3.2600   24.6570 S   0  0  0  0  0  0  0  0  0  0  0  0
   10.7660    1.7330   23.7620 C   0  0  0  0  0  0  0  0  0  0  0  0
   12.0080    1.2250   23.3460 C   0  0  0  0  0  0  0  0  0  0  0  0
   12.0570    0.0780   22.5310 C   0  0  0  0  0  0  0  0  0  0  0  0
   10.8630   -0.5470   22.1260 C   0  0  0  0  0  0  0  0  0  0  0  0
    9.6280   -0.0350   22.5540 C   0  0  0  0  0  0  0  0  0  0  0  0
    8.4070   -0.5370   22.0670 N   0  0  0  0  0  0  0  0  0  0  0  0
    7.9430   -0.2350   20.8190 C   0  0  0  0  0  0  0  0  0  0  0  0
    8.6490    0.1610   19.9130 O   0  0  0  0  0  0  0  0  0  0  0  0
    6.5840   -0.3330   20.6970 N   0  0  0  0  0  0  0  0  0  0  0  0
    5.8640    0.2610   19.6330 C   0  0  0  0  0  0  0  0  0  0  0  0
    4.9150    1.2510   19.9200 C   0  0  0  0  0  0  0  0  0  0  0  0
    4.3480    1.9420   18.8410 C   0  0  0  0  0  0  0  0  0  0  0  0
    4.7480    1.6320   17.5320 C   0  0  0  0  0  0  0  0  0  0  0  0
    5.6350    0.6520   17.2470 N   0  0  0  0  0  0  0  0  0  0  0  0
    6.1910   -0.0020   18.2860 C   0  0  0  0  0  0  0  0  0  0  0  0
    9.5830    1.0950   23.3770 C   0  0  0  0  0  0  0  0  0  0  0  0
  1  2  1  0
  2  3  1  0
  3  4  2  0
  3  5  1  0
  5  6  1  0
  6  7  1  0
  7 22  2  0
  7  8  1  0
  8  9  2  0
  9 10  1  0
 10 11  2  0
 11 12  1  0
 11 22  1  0
 12 13  1  0
 13 14  2  0
 13 15  1  0
 15 16  1  0
 16 17  2  0
 16 21  1  0
 17 18  1  0
 18 19  2  0
 19 20  1  0
 20 21  2  0
M  END
>  <original SMILES>  (723) 
COC(=O)CSc1cccc(NC(=O)Nc2cccnc2)c1

>  <AutoDock Predicted Affinity>  (723) 
-5.20259

>  <ref_pdb>  (723) 
x0434_0

>  <ref_mols>  (723) 
x0434_0

>  <creator>  (723) 
Will Poole

>  <energy minimised>  (723) 
True

$$$$
WPC2312_minimised.pdb
     RDKit          3D

 23 24  0  0  1  0  0  0  0  0999 V2000
    9.0260    5.6380   22.6280 C   0  0  0  0  0  0  0  0  0  0  0  0
    9.5290    4.3490   23.0310 O   0  0  0  0  0  0  0  0  0  0  0  0
   10.6230    4.3430   23.9810 C   0  0  1  0  0  0  0  0  0  0  0  0
   10.7440    2.9310   24.5930 C   0  0  0  0  0  0  0  0  0  0  0  0
   10.8040    1.7760   23.6090 C   0  0  0  0  0  0  0  0  0  0  0  0
   12.0290    1.2390   23.1720 C   0  0  0  0  0  0  0  0  0  0  0  0
   12.0430    0.1250   22.3130 C   0  0  0  0  0  0  0  0  0  0  0  0
   10.8320   -0.4550   21.8930 C   0  0  0  0  0  0  0  0  0  0  0  0
    9.6130    0.0820   22.3340 C   0  0  0  0  0  0  0  0  0  0  0  0
    8.3740   -0.4130   21.8840 N   0  0  0  0  0  0  0  0  0  0  0  0
    7.8990   -0.1860   20.6260 C   0  0  0  0  0  0  0  0  0  0  0  0
    8.5970    0.1150   19.6790 O   0  0  0  0  0  0  0  0  0  0  0  0
    6.5340   -0.2260   20.5450 N   0  0  0  0  0  0  0  0  0  0  0  0
    5.8120    0.3780   19.4890 C   0  0  0  0  0  0  0  0  0  0  0  0
    4.8820    1.3820   19.7870 C   0  0  0  0  0  0  0  0  0  0  0  0
    4.3260    2.0930   18.7150 C   0  0  0  0  0  0  0  0  0  0  0  0
    4.7260    1.7950   17.4040 C   0  0  0  0  0  0  0  0  0  0  0  0
    5.5920    0.7990   17.1090 N   0  0  0  0  0  0  0  0  0  0  0  0
    6.1280    0.1170   18.1400 C   0  0  0  0  0  0  0  0  0  0  0  0
    9.6040    1.1910   23.1860 C   0  0  0  0  0  0  0  0  0  0  0  0
   11.9850    4.8030   23.4290 C   0  0  0  0  0  0  0  0  0  0  0  0
   12.9030    5.1140   24.1650 O   0  0  0  0  0  0  0  0  0  0  0  0
   12.0990    4.9190   22.0970 O   0  0  0  0  0  0  0  0  0  0  0  0
  1  2  1  0
  2  3  1  0
  3 21  1  0
  3  4  1  6
  4  5  1  0
  5 20  2  0
  5  6  1  0
  6  7  2  0
  7  8  1  0
  8  9  2  0
  9 10  1  0
  9 20  1  0
 10 11  1  0
 11 12  2  0
 11 13  1  0
 13 14  1  0
 14 15  2  0
 14 19  1  0
 15 16  1  0
 16 17  2  0
 17 18  1  0
 18 19  2  0
 21 22  2  0
 21 23  1  0
M  END
>  <original SMILES>  (724) 
COC(Cc1cccc(NC(=O)Nc2cccnc2)c1)C(=O)O

>  <AutoDock Predicted Affinity>  (724) 
-5.82827

>  <ref_pdb>  (724) 
x0434_0

>  <ref_mols>  (724) 
x0434_0

>  <creator>  (724) 
Will Poole

>  <energy minimised>  (724) 
True

$$$$
WPC2446_minimised.pdb
     RDKit          3D

 24 25  0  0  0  0  0  0  0  0999 V2000
    8.3220    5.1910   22.0980 C   0  0  0  0  0  0  0  0  0  0  0  0
    9.0110    5.8940   23.1520 O   0  0  0  0  0  0  0  0  0  0  0  0
   10.4390    5.6580   23.1850 C   0  0  0  0  0  0  0  0  0  0  0  0
   10.8360    4.2840   23.7640 C   0  0  0  0  0  0  0  0  0  0  0  0
   10.1480    3.7280   24.6010 O   0  0  0  0  0  0  0  0  0  0  0  0
   12.0200    3.6980   23.3210 N   0  0  0  0  0  0  0  0  0  0  0  0
   13.0490    4.4560   22.5830 C   0  0  0  0  0  0  0  0  0  0  0  0
   12.4060    2.3390   23.7640 C   0  0  0  0  0  0  0  0  0  0  0  0
   11.8600    1.1650   22.9700 C   0  0  0  0  0  0  0  0  0  0  0  0
   12.7450    0.1980   22.4580 C   0  0  0  0  0  0  0  0  0  0  0  0
   12.2510   -0.9430   21.8080 C   0  0  0  0  0  0  0  0  0  0  0  0
   10.8670   -1.1240   21.6720 C   0  0  0  0  0  0  0  0  0  0  0  0
    9.9810   -0.1610   22.1740 C   0  0  0  0  0  0  0  0  0  0  0  0
    8.5960   -0.2870   21.9470 N   0  0  0  0  0  0  0  0  0  0  0  0
    8.0190   -0.0700   20.7290 C   0  0  0  0  0  0  0  0  0  0  0  0
    8.6580    0.1220   19.7160 O   0  0  0  0  0  0  0  0  0  0  0  0
    6.6510   -0.0220   20.7440 N   0  0  0  0  0  0  0  0  0  0  0  0
    5.8790    0.4950   19.6740 C   0  0  0  0  0  0  0  0  0  0  0  0
    4.9410    1.5000   19.9360 C   0  0  0  0  0  0  0  0  0  0  0  0
    4.3410    2.1310   18.8390 C   0  0  0  0  0  0  0  0  0  0  0  0
    4.7080    1.7590   17.5380 C   0  0  0  0  0  0  0  0  0  0  0  0
    5.5670    0.7490   17.2760 N   0  0  0  0  0  0  0  0  0  0  0  0
    6.1430    0.1410   18.3320 C   0  0  0  0  0  0  0  0  0  0  0  0
   10.4750    0.9750   22.8270 C   0  0  0  0  0  0  0  0  0  0  0  0
  1  2  1  0
  2  3  1  0
  3  4  1  0
  4  5  2  0
  4  6  1  0
  6  7  1  0
  6  8  1  0
  8  9  1  0
  9 24  2  0
  9 10  1  0
 10 11  2  0
 11 12  1  0
 12 13  2  0
 13 14  1  0
 13 24  1  0
 14 15  1  0
 15 16  2  0
 15 17  1  0
 17 18  1  0
 18 19  2  0
 18 23  1  0
 19 20  1  0
 20 21  2  0
 21 22  1  0
 22 23  2  0
M  END
>  <original SMILES>  (725) 
COCC(=O)N(C)Cc1cccc(NC(=O)Nc2cccnc2)c1

>  <AutoDock Predicted Affinity>  (725) 
-5.7487

>  <ref_pdb>  (725) 
x0434_0

>  <ref_mols>  (725) 
x0434_0

>  <creator>  (725) 
Will Poole

>  <energy minimised>  (725) 
True

$$$$
WPC2003_minimised.pdb
     RDKit          3D

 23 24  0  0  0  0  0  0  0  0999 V2000
   14.2890    4.7100   22.3410 C   0  0  0  0  0  0  0  0  0  0  0  0
   13.2180    5.6530   22.4830 O   0  0  0  0  0  0  0  0  0  0  0  0
   12.7480    5.8700   23.8390 C   0  0  0  0  0  0  0  0  0  0  0  0
   11.5060    5.0640   24.2100 C   0  0  0  0  0  0  0  0  0  0  0  0
   10.6790    5.4860   24.9940 O   0  0  0  0  0  0  0  0  0  0  0  0
   11.4440    3.7900   23.7060 N   0  0  0  0  0  0  0  0  0  0  0  0
   10.5830    2.7590   24.2760 C   0  0  0  0  0  0  0  0  0  0  0  0
   10.6320    1.4630   23.4890 C   0  0  0  0  0  0  0  0  0  0  0  0
   11.8450    0.8180   23.1780 C   0  0  0  0  0  0  0  0  0  0  0  0
   11.8410   -0.3570   22.4040 C   0  0  0  0  0  0  0  0  0  0  0  0
   10.6250   -0.9000   21.9560 C   0  0  0  0  0  0  0  0  0  0  0  0
    9.4190   -0.2670   22.2890 C   0  0  0  0  0  0  0  0  0  0  0  0
    8.1820   -0.7050   21.7860 N   0  0  0  0  0  0  0  0  0  0  0  0
    7.7720   -0.4090   20.5210 C   0  0  0  0  0  0  0  0  0  0  0  0
    8.5250   -0.1600   19.6010 O   0  0  0  0  0  0  0  0  0  0  0  0
    6.4130   -0.3170   20.4150 N   0  0  0  0  0  0  0  0  0  0  0  0
    5.7520    0.3610   19.3660 C   0  0  0  0  0  0  0  0  0  0  0  0
    4.8250    1.3640   19.6780 C   0  0  0  0  0  0  0  0  0  0  0  0
    4.3010    2.1190   18.6210 C   0  0  0  0  0  0  0  0  0  0  0  0
    4.7350    1.8720   17.3110 C   0  0  0  0  0  0  0  0  0  0  0  0
    5.6030    0.8820   17.0010 N   0  0  0  0  0  0  0  0  0  0  0  0
    6.1020    0.1520   18.0160 C   0  0  0  0  0  0  0  0  0  0  0  0
    9.4250    0.9060   23.0480 C   0  0  0  0  0  0  0  0  0  0  0  0
  1  2  1  0
  2  3  1  0
  3  4  1  0
  4  5  2  0
  4  6  1  0
  6  7  1  0
  7  8  1  0
  8 23  2  0
  8  9  1  0
  9 10  2  0
 10 11  1  0
 11 12  2  0
 12 13  1  0
 12 23  1  0
 13 14  1  0
 14 15  2  0
 14 16  1  0
 16 17  1  0
 17 18  2  0
 17 22  1  0
 18 19  1  0
 19 20  2  0
 20 21  1  0
 21 22  2  0
M  END
>  <original SMILES>  (726) 
COCC(=O)NCc1cccc(NC(=O)Nc2cccnc2)c1

>  <AutoDock Predicted Affinity>  (726) 
-5.75668

>  <ref_pdb>  (726) 
x0434_0

>  <ref_mols>  (726) 
x0434_0

>  <creator>  (726) 
Will Poole

>  <energy minimised>  (726) 
True

$$$$
WPC1273_minimised.pdb
     RDKit          3D

 20 21  0  0  0  0  0  0  0  0999 V2000
   14.1050    5.3360   22.3550 C   0  0  0  0  0  0  0  0  0  0  0  0
   13.2490    4.6170   23.2550 O   0  0  0  0  0  0  0  0  0  0  0  0
   11.8830    4.5770   22.8140 C   0  0  0  0  0  0  0  0  0  0  0  0
   11.0730    3.6770   23.7640 C   0  0  0  0  0  0  0  0  0  0  0  0
   11.0630    2.2180   23.3310 C   0  0  0  0  0  0  0  0  0  0  0  0
   12.2550    1.4860   23.1790 C   0  0  0  0  0  0  0  0  0  0  0  0
   12.2210    0.1660   22.6960 C   0  0  0  0  0  0  0  0  0  0  0  0
   10.9910   -0.4400   22.3860 C   0  0  0  0  0  0  0  0  0  0  0  0
    9.8010    0.2820   22.5560 C   0  0  0  0  0  0  0  0  0  0  0  0
    8.5570   -0.2480   22.1610 N   0  0  0  0  0  0  0  0  0  0  0  0
    8.0440   -0.0500   20.9110 C   0  0  0  0  0  0  0  0  0  0  0  0
    8.7130    0.3090   19.9650 O   0  0  0  0  0  0  0  0  0  0  0  0
    6.6880   -0.2000   20.8210 N   0  0  0  0  0  0  0  0  0  0  0  0
    5.9380    0.3160   19.7370 C   0  0  0  0  0  0  0  0  0  0  0  0
    4.9800    1.3070   19.9840 C   0  0  0  0  0  0  0  0  0  0  0  0
    4.3940    1.9390   18.8790 C   0  0  0  0  0  0  0  0  0  0  0  0
    4.7880    1.5730   17.5830 C   0  0  0  0  0  0  0  0  0  0  0  0
    5.6770    0.5860   17.3350 N   0  0  0  0  0  0  0  0  0  0  0  0
    6.2510   -0.0120   18.3990 C   0  0  0  0  0  0  0  0  0  0  0  0
    9.8400    1.6040   23.0190 C   0  0  0  0  0  0  0  0  0  0  0  0
  1  2  1  0
  2  3  1  0
  3  4  1  0
  4  5  1  0
  5 20  2  0
  5  6  1  0
  6  7  2  0
  7  8  1  0
  8  9  2  0
  9 10  1  0
  9 20  1  0
 10 11  1  0
 11 12  2  0
 11 13  1  0
 13 14  1  0
 14 15  2  0
 14 19  1  0
 15 16  1  0
 16 17  2  0
 17 18  1  0
 18 19  2  0
M  END
>  <original SMILES>  (727) 
COCCc1cccc(NC(=O)Nc2cccnc2)c1

>  <AutoDock Predicted Affinity>  (727) 
-5.412817

>  <ref_pdb>  (727) 
x0434_0

>  <ref_mols>  (727) 
x0434_0

>  <creator>  (727) 
Will Poole

>  <energy minimised>  (727) 
True

$$$$
WPC1718_minimised.pdb
     RDKit          3D

 23 24  0  0  0  0  0  0  0  0999 V2000
    9.5720    5.9600   23.0180 C   0  0  0  0  0  0  0  0  0  0  0  0
   10.5210    5.6390   24.0500 O   0  0  0  0  0  0  0  0  0  0  0  0
   11.0210    4.3150   23.9190 N   0  0  0  0  0  0  0  0  0  0  0  0
   10.3600    3.3490   24.8050 C   0  0  0  0  0  0  0  0  0  0  0  0
   12.0690    4.0670   23.0220 C   0  0  0  0  0  0  0  0  0  0  0  0
   12.5030    4.9350   22.2840 O   0  0  0  0  0  0  0  0  0  0  0  0
   12.7510    2.6910   23.1090 C   0  0  0  0  0  0  0  0  0  0  0  0
   12.0750    1.4730   22.4810 C   0  0  0  0  0  0  0  0  0  0  0  0
   12.8630    0.3240   22.2840 C   0  0  0  0  0  0  0  0  0  0  0  0
   12.2790   -0.8850   21.8770 C   0  0  0  0  0  0  0  0  0  0  0  0
   10.8900   -0.9630   21.6980 C   0  0  0  0  0  0  0  0  0  0  0  0
   10.0970    0.1780   21.8800 C   0  0  0  0  0  0  0  0  0  0  0  0
    8.6970    0.0930   21.7340 N   0  0  0  0  0  0  0  0  0  0  0  0
    8.0400    0.0560   20.5390 C   0  0  0  0  0  0  0  0  0  0  0  0
    8.6070   -0.0120   19.4710 O   0  0  0  0  0  0  0  0  0  0  0  0
    6.6810    0.1820   20.6450 N   0  0  0  0  0  0  0  0  0  0  0  0
    5.8480    0.6290   19.5910 C   0  0  0  0  0  0  0  0  0  0  0  0
    4.9120    1.6360   19.8610 C   0  0  0  0  0  0  0  0  0  0  0  0
    4.2370    2.2060   18.7750 C   0  0  0  0  0  0  0  0  0  0  0  0
    4.5400    1.7850   17.4730 C   0  0  0  0  0  0  0  0  0  0  0  0
    5.3900    0.7680   17.2090 N   0  0  0  0  0  0  0  0  0  0  0  0
    6.0300    0.2090   18.2540 C   0  0  0  0  0  0  0  0  0  0  0  0
   10.6910    1.4020   22.2290 C   0  0  0  0  0  0  0  0  0  0  0  0
  1  2  1  0
  2  3  1  0
  3  4  1  0
  3  5  1  0
  5  6  2  0
  5  7  1  0
  7  8  1  0
  8 23  2  0
  8  9  1  0
  9 10  2  0
 10 11  1  0
 11 12  2  0
 12 13  1  0
 12 23  1  0
 13 14  1  0
 14 15  2  0
 14 16  1  0
 16 17  1  0
 17 18  2  0
 17 22  1  0
 18 19  1  0
 19 20  2  0
 20 21  1  0
 21 22  2  0
M  END
>  <original SMILES>  (728) 
CON(C)C(=O)Cc1cccc(NC(=O)Nc2cccnc2)c1

>  <AutoDock Predicted Affinity>  (728) 
-5.78035

>  <ref_pdb>  (728) 
x0434_0

>  <ref_mols>  (728) 
x0434_0

>  <creator>  (728) 
Will Poole

>  <energy minimised>  (728) 
True

$$$$
WPC1803_minimised.pdb
     RDKit          3D

 21 22  0  0  0  0  0  0  0  0999 V2000
   13.7830    5.2950   21.6600 C   0  0  0  0  0  0  0  0  0  0  0  0
   13.6730    4.8580   23.0200 O   0  0  0  0  0  0  0  0  0  0  0  0
   13.3720    3.4500   23.0620 N   0  0  0  0  0  0  0  0  0  0  0  0
   12.0410    3.3120   23.6710 C   0  0  0  0  0  0  0  0  0  0  0  0
   11.8230    1.9060   24.2650 C   0  0  0  0  0  0  0  0  0  0  0  0
   11.4050    0.8490   23.2700 C   0  0  0  0  0  0  0  0  0  0  0  0
   12.3640    0.0270   22.6540 C   0  0  0  0  0  0  0  0  0  0  0  0
   11.9560   -1.0270   21.8240 C   0  0  0  0  0  0  0  0  0  0  0  0
   10.5880   -1.2470   21.6000 C   0  0  0  0  0  0  0  0  0  0  0  0
    9.6350   -0.3960   22.1750 C   0  0  0  0  0  0  0  0  0  0  0  0
    8.2750   -0.5140   21.8360 N   0  0  0  0  0  0  0  0  0  0  0  0
    7.7910   -0.2180   20.5950 C   0  0  0  0  0  0  0  0  0  0  0  0
    8.4950   -0.0140   19.6270 O   0  0  0  0  0  0  0  0  0  0  0  0
    6.4290   -0.1060   20.5520 N   0  0  0  0  0  0  0  0  0  0  0  0
    5.7220    0.4910   19.4820 C   0  0  0  0  0  0  0  0  0  0  0  0
    4.7830    1.4910   19.7610 C   0  0  0  0  0  0  0  0  0  0  0  0
    4.2240    2.1780   18.6750 C   0  0  0  0  0  0  0  0  0  0  0  0
    4.6350    1.8660   17.3710 C   0  0  0  0  0  0  0  0  0  0  0  0
    5.5030    0.8680   17.0930 N   0  0  0  0  0  0  0  0  0  0  0  0
    6.0370    0.2050   18.1360 C   0  0  0  0  0  0  0  0  0  0  0  0
   10.0410    0.6430   23.0180 C   0  0  0  0  0  0  0  0  0  0  0  0
  1  2  1  0
  2  3  1  0
  3  4  1  0
  4  5  1  0
  5  6  1  0
  6 21  2  0
  6  7  1  0
  7  8  2  0
  8  9  1  0
  9 10  2  0
 10 11  1  0
 10 21  1  0
 11 12  1  0
 12 13  2  0
 12 14  1  0
 14 15  1  0
 15 16  2  0
 15 20  1  0
 16 17  1  0
 17 18  2  0
 18 19  1  0
 19 20  2  0
M  END
>  <original SMILES>  (729) 
CONCCc1cccc(NC(=O)Nc2cccnc2)c1

>  <AutoDock Predicted Affinity>  (729) 
-5.371277

>  <ref_pdb>  (729) 
x0434_0

>  <ref_mols>  (729) 
x0434_0

>  <creator>  (729) 
Will Poole

>  <energy minimised>  (729) 
True

$$$$
WPC1903_minimised.pdb
     RDKit          3D

 20 21  0  0  0  0  0  0  0  0999 V2000
   13.6110    5.4140   22.5150 C   0  0  0  0  0  0  0  0  0  0  0  0
   12.9070    4.2210   22.8680 O   0  0  0  0  0  0  0  0  0  0  0  0
   11.4880    4.4570   23.0030 N   0  0  0  0  0  0  0  0  0  0  0  0
   10.9660    3.4360   23.9240 C   0  0  0  0  0  0  0  0  0  0  0  0
   10.9340    2.0360   23.3220 C   0  0  0  0  0  0  0  0  0  0  0  0
   12.1130    1.3010   23.0880 C   0  0  0  0  0  0  0  0  0  0  0  0
   12.0550    0.0360   22.4780 C   0  0  0  0  0  0  0  0  0  0  0  0
   10.8120   -0.5190   22.1300 C   0  0  0  0  0  0  0  0  0  0  0  0
    9.6350    0.1960   22.3960 C   0  0  0  0  0  0  0  0  0  0  0  0
    8.3750   -0.2870   22.0000 N   0  0  0  0  0  0  0  0  0  0  0  0
    7.9060   -0.1490   20.7270 C   0  0  0  0  0  0  0  0  0  0  0  0
    8.6160    0.0580   19.7640 O   0  0  0  0  0  0  0  0  0  0  0  0
    6.5410   -0.1690   20.6480 N   0  0  0  0  0  0  0  0  0  0  0  0
    5.8210    0.3920   19.5670 C   0  0  0  0  0  0  0  0  0  0  0  0
    4.8720    1.3860   19.8340 C   0  0  0  0  0  0  0  0  0  0  0  0
    4.3040    2.0550   18.7430 C   0  0  0  0  0  0  0  0  0  0  0  0
    4.7140    1.7300   17.4420 C   0  0  0  0  0  0  0  0  0  0  0  0
    5.5950    0.7400   17.1740 N   0  0  0  0  0  0  0  0  0  0  0  0
    6.1420    0.0970   18.2250 C   0  0  0  0  0  0  0  0  0  0  0  0
    9.6970    1.4660   22.9820 C   0  0  0  0  0  0  0  0  0  0  0  0
  1  2  1  0
  2  3  1  0
  3  4  1  0
  4  5  1  0
  5 20  2  0
  5  6  1  0
  6  7  2  0
  7  8  1  0
  8  9  2  0
  9 10  1  0
  9 20  1  0
 10 11  1  0
 11 12  2  0
 11 13  1  0
 13 14  1  0
 14 15  2  0
 14 19  1  0
 15 16  1  0
 16 17  2  0
 17 18  1  0
 18 19  2  0
M  END
>  <original SMILES>  (730) 
CONCc1cccc(NC(=O)Nc2cccnc2)c1

>  <AutoDock Predicted Affinity>  (730) 
-5.649587

>  <ref_pdb>  (730) 
x0434_0

>  <ref_mols>  (730) 
x0434_0

>  <creator>  (730) 
Will Poole

>  <energy minimised>  (730) 
True

$$$$
WPC2448_minimised.pdb
     RDKit          3D

 23 24  0  0  0  0  0  0  0  0999 V2000
   12.7580    5.1910   22.7820 C   0  0  0  0  0  0  0  0  0  0  0  0
   11.6750    5.7530   24.0810 S   0  0  0  0  0  0  0  0  0  0  0  0
   12.4940    6.4570   25.0400 O   0  0  0  0  0  0  0  0  0  0  0  0
   10.4980    6.3910   23.5340 O   0  0  0  0  0  0  0  0  0  0  0  0
   11.1500    4.2690   24.8900 C   0  0  0  0  0  0  0  0  0  0  0  0
   10.4730    3.2300   23.9920 C   0  0  0  0  0  0  0  0  0  0  0  0
   10.3120    1.7320   25.0300 S   0  0  0  0  0  0  0  0  0  0  0  0
   10.1890    0.4800   23.7970 C   0  0  0  0  0  0  0  0  0  0  0  0
   11.3380   -0.1440   23.2880 C   0  0  0  0  0  0  0  0  0  0  0  0
   11.2160   -1.1120   22.2770 C   0  0  0  0  0  0  0  0  0  0  0  0
    9.9470   -1.4140   21.7570 C   0  0  0  0  0  0  0  0  0  0  0  0
    8.8120   -0.7530   22.2500 C   0  0  0  0  0  0  0  0  0  0  0  0
    7.5640   -0.8790   21.6290 N   0  0  0  0  0  0  0  0  0  0  0  0
    7.3220   -0.3870   20.3820 C   0  0  0  0  0  0  0  0  0  0  0  0
    8.1830   -0.1370   19.5600 O   0  0  0  0  0  0  0  0  0  0  0  0
    5.9960   -0.1300   20.1850 N   0  0  0  0  0  0  0  0  0  0  0  0
    5.4700    0.6170   19.1090 C   0  0  0  0  0  0  0  0  0  0  0  0
    4.5140    1.6080   19.3600 C   0  0  0  0  0  0  0  0  0  0  0  0
    4.1030    2.4000   18.2810 C   0  0  0  0  0  0  0  0  0  0  0  0
    4.6800    2.2050   17.0180 C   0  0  0  0  0  0  0  0  0  0  0  0
    5.5820    1.2300   16.7650 N   0  0  0  0  0  0  0  0  0  0  0  0
    5.9610    0.4570   17.7980 C   0  0  0  0  0  0  0  0  0  0  0  0
    8.9290    0.1770   23.2830 C   0  0  0  0  0  0  0  0  0  0  0  0
  1  2  1  0
  2  3  2  0
  2  4  2  0
  2  5  1  0
  5  6  1  0
  6  7  1  0
  7  8  1  0
  8 23  2  0
  8  9  1  0
  9 10  2  0
 10 11  1  0
 11 12  2  0
 12 13  1  0
 12 23  1  0
 13 14  1  0
 14 15  2  0
 14 16  1  0
 16 17  1  0
 17 18  2  0
 17 22  1  0
 18 19  1  0
 19 20  2  0
 20 21  1  0
 21 22  2  0
M  END
>  <original SMILES>  (731) 
CS(=O)(=O)CCSc1cccc(NC(=O)Nc2cccnc2)c1

>  <AutoDock Predicted Affinity>  (731) 
-5.015937

>  <ref_pdb>  (731) 
x0434_0

>  <ref_mols>  (731) 
x0434_0

>  <creator>  (731) 
Will Poole

>  <energy minimised>  (731) 
True

$$$$
WPC2391_minimised.pdb
     RDKit          3D

 21 22  0  0  0  0  0  0  0  0999 V2000
   12.3550    5.7250   24.5190 C   0  0  0  0  0  0  0  0  0  0  0  0
   11.5370    4.6760   23.3160 S   0  0  0  0  0  0  0  0  0  0  0  0
   12.1030    5.1120   22.0580 O   0  0  0  0  0  0  0  0  0  0  0  0
   10.1270    4.7730   23.6430 O   0  0  0  0  0  0  0  0  0  0  0  0
   12.1570    3.0450   23.7650 C   0  0  0  0  0  0  0  0  0  0  0  0
   11.6420    1.8120   23.0400 C   0  0  0  0  0  0  0  0  0  0  0  0
   12.5610    0.8280   22.6310 C   0  0  0  0  0  0  0  0  0  0  0  0
   12.1160   -0.3480   22.0070 C   0  0  0  0  0  0  0  0  0  0  0  0
   10.7430   -0.5530   21.8080 C   0  0  0  0  0  0  0  0  0  0  0  0
    9.8220    0.4160   22.2350 C   0  0  0  0  0  0  0  0  0  0  0  0
    8.4440    0.2450   21.9950 N   0  0  0  0  0  0  0  0  0  0  0  0
    7.8910    0.1920   20.7480 C   0  0  0  0  0  0  0  0  0  0  0  0
    8.5460    0.1110   19.7280 O   0  0  0  0  0  0  0  0  0  0  0  0
    6.5280    0.3030   20.7420 N   0  0  0  0  0  0  0  0  0  0  0  0
    5.7670    0.7190   19.6230 C   0  0  0  0  0  0  0  0  0  0  0  0
    4.8040    1.7160   19.8120 C   0  0  0  0  0  0  0  0  0  0  0  0
    4.1870    2.2500   18.6760 C   0  0  0  0  0  0  0  0  0  0  0  0
    4.5680    1.7970   17.4050 C   0  0  0  0  0  0  0  0  0  0  0  0
    5.4500    0.7890   17.2140 N   0  0  0  0  0  0  0  0  0  0  0  0
    6.0400    0.2720   18.3100 C   0  0  0  0  0  0  0  0  0  0  0  0
   10.2680    1.5930   22.8520 C   0  0  0  0  0  0  0  0  0  0  0  0
  1  2  1  0
  2  3  2  0
  2  4  2  0
  2  5  1  0
  5  6  1  0
  6 21  2  0
  6  7  1  0
  7  8  2  0
  8  9  1  0
  9 10  2  0
 10 11  1  0
 10 21  1  0
 11 12  1  0
 12 13  2  0
 12 14  1  0
 14 15  1  0
 15 16  2  0
 15 20  1  0
 16 17  1  0
 17 18  2  0
 18 19  1  0
 19 20  2  0
M  END
>  <original SMILES>  (732) 
CS(=O)(=O)Cc1cccc(NC(=O)Nc2cccnc2)c1

>  <AutoDock Predicted Affinity>  (732) 
-5.670332

>  <ref_pdb>  (732) 
x0434_0

>  <ref_mols>  (732) 
x0434_0

>  <creator>  (732) 
Will Poole

>  <energy minimised>  (732) 
True

$$$$
WPC1971_minimised.pdb
     RDKit          3D

 24 25  0  0  0  0  0  0  0  0999 V2000
   14.3220    6.7920   21.8630 C   0  0  0  0  0  0  0  0  0  0  0  0
   13.8700    5.1070   21.9780 S   0  0  0  0  0  0  0  0  0  0  0  0
   14.6160    4.4560   23.0320 O   0  0  0  0  0  0  0  0  0  0  0  0
   13.7010    4.5920   20.6550 O   0  0  0  0  0  0  0  0  0  0  0  0
   12.3250    5.1610   22.4680 N   0  0  0  0  0  0  0  0  0  0  0  0
   11.9790    4.0350   23.3290 C   0  0  0  0  0  0  0  0  0  0  0  0
   10.4900    3.9780   23.6600 C   0  0  0  0  0  0  0  0  0  0  0  0
   10.2540    2.5950   24.8460 S   0  0  0  0  0  0  0  0  0  0  0  0
   10.3850    1.1600   23.8150 C   0  0  0  0  0  0  0  0  0  0  0  0
   11.6200    0.5650   23.5070 C   0  0  0  0  0  0  0  0  0  0  0  0
   11.6660   -0.5330   22.6270 C   0  0  0  0  0  0  0  0  0  0  0  0
   10.4780   -1.0320   22.0650 C   0  0  0  0  0  0  0  0  0  0  0  0
    9.2510   -0.4410   22.3970 C   0  0  0  0  0  0  0  0  0  0  0  0
    8.0510   -0.8280   21.7830 N   0  0  0  0  0  0  0  0  0  0  0  0
    7.7060   -0.3980   20.5380 C   0  0  0  0  0  0  0  0  0  0  0  0
    8.4990   -0.0080   19.7050 O   0  0  0  0  0  0  0  0  0  0  0  0
    6.3530   -0.3520   20.3580 N   0  0  0  0  0  0  0  0  0  0  0  0
    5.7270    0.3670   19.3170 C   0  0  0  0  0  0  0  0  0  0  0  0
    4.7790    1.3490   19.6300 C   0  0  0  0  0  0  0  0  0  0  0  0
    4.2980    2.1450   18.5820 C   0  0  0  0  0  0  0  0  0  0  0  0
    4.7930    1.9550   17.2840 C   0  0  0  0  0  0  0  0  0  0  0  0
    5.6840    0.9870   16.9720 N   0  0  0  0  0  0  0  0  0  0  0  0
    6.1440    0.2200   17.9790 C   0  0  0  0  0  0  0  0  0  0  0  0
    9.2060    0.6490   23.2690 C   0  0  0  0  0  0  0  0  0  0  0  0
  1  2  1  0
  2  3  2  0
  2  4  2  0
  2  5  1  0
  5  6  1  0
  6  7  1  0
  7  8  1  0
  8  9  1  0
  9 24  2  0
  9 10  1  0
 10 11  2  0
 11 12  1  0
 12 13  2  0
 13 14  1  0
 13 24  1  0
 14 15  1  0
 15 16  2  0
 15 17  1  0
 17 18  1  0
 18 19  2  0
 18 23  1  0
 19 20  1  0
 20 21  2  0
 21 22  1  0
 22 23  2  0
M  END
>  <original SMILES>  (733) 
CS(=O)(=O)NCCSc1cccc(NC(=O)Nc2cccnc2)c1

>  <AutoDock Predicted Affinity>  (733) 
-4.77717

>  <ref_pdb>  (733) 
x0434_0

>  <ref_mols>  (733) 
x0434_0

>  <creator>  (733) 
Will Poole

>  <energy minimised>  (733) 
True

$$$$
WPC2182_minimised.pdb
     RDKit          3D

 21 22  0  0  0  0  0  0  0  0999 V2000
   12.3820    6.1860   24.7260 C   0  0  0  0  0  0  0  0  0  0  0  0
   11.2660    5.3690   23.6250 S   0  0  0  0  0  0  0  0  0  0  0  0
   10.1860    6.3320   23.5290 O   0  0  0  0  0  0  0  0  0  0  0  0
   12.0610    4.9180   22.5050 O   0  0  0  0  0  0  0  0  0  0  0  0
   10.6990    3.8160   24.9170 S   0  0  0  0  0  0  0  0  0  0  0  0
   10.8460    2.4440   23.7970 C   0  0  0  0  0  0  0  0  0  0  0  0
   12.0850    1.9430   23.3610 C   0  0  0  0  0  0  0  0  0  0  0  0
   12.1330    0.7820   22.5670 C   0  0  0  0  0  0  0  0  0  0  0  0
   10.9430    0.1240   22.2090 C   0  0  0  0  0  0  0  0  0  0  0  0
    9.7080    0.6210   22.6570 C   0  0  0  0  0  0  0  0  0  0  0  0
    8.4900    0.0320   22.2630 N   0  0  0  0  0  0  0  0  0  0  0  0
    8.0200    0.0670   20.9800 C   0  0  0  0  0  0  0  0  0  0  0  0
    8.7150    0.3120   20.0170 O   0  0  0  0  0  0  0  0  0  0  0  0
    6.6650   -0.1030   20.8780 N   0  0  0  0  0  0  0  0  0  0  0  0
    5.9200    0.3650   19.7680 C   0  0  0  0  0  0  0  0  0  0  0  0
    4.9420    1.3430   19.9840 C   0  0  0  0  0  0  0  0  0  0  0  0
    4.3550    1.9380   18.8600 C   0  0  0  0  0  0  0  0  0  0  0  0
    4.7670    1.5480   17.5780 C   0  0  0  0  0  0  0  0  0  0  0  0
    5.6730    0.5690   17.3590 N   0  0  0  0  0  0  0  0  0  0  0  0
    6.2480    0.0070   18.4420 C   0  0  0  0  0  0  0  0  0  0  0  0
    9.6670    1.7710   23.4550 C   0  0  0  0  0  0  0  0  0  0  0  0
  1  2  1  0
  2  3  2  0
  2  4  2  0
  2  5  1  0
  5  6  1  0
  6 21  2  0
  6  7  1  0
  7  8  2  0
  8  9  1  0
  9 10  2  0
 10 11  1  0
 10 21  1  0
 11 12  1  0
 12 13  2  0
 12 14  1  0
 14 15  1  0
 15 16  2  0
 15 20  1  0
 16 17  1  0
 17 18  2  0
 18 19  1  0
 19 20  2  0
M  END
>  <original SMILES>  (734) 
CS(=O)(=O)Sc1cccc(NC(=O)Nc2cccnc2)c1

>  <AutoDock Predicted Affinity>  (734) 
-5.391553

>  <ref_pdb>  (734) 
x0434_0

>  <ref_mols>  (734) 
x0434_0

>  <creator>  (734) 
Will Poole

>  <energy minimised>  (734) 
True

$$$$
WPC2467_minimised.pdb
     RDKit          3D

 24 25  0  0  0  0  0  0  0  0999 V2000
    7.6400    4.9690   21.8970 C   0  0  0  0  0  0  0  0  0  0  0  0
    8.2250    3.5820   22.9520 S   0  0  0  0  0  0  0  0  0  0  0  0
    9.7960    4.2530   23.5580 C   0  0  0  0  0  0  0  0  0  0  0  0
   10.2820    5.8410   23.3480 S   0  0  0  0  0  0  0  0  0  0  0  0
   10.6600    3.2350   23.9230 N   0  0  0  0  0  0  0  0  0  0  0  0
   10.2020    2.1030   24.7640 C   0  0  0  0  0  0  0  0  0  0  0  0
   12.0060    3.2290   23.2930 C   0  0  0  0  0  0  0  0  0  0  0  0
   12.8090    1.9000   23.2880 C   0  0  0  0  0  0  0  0  0  0  0  0
   12.2090    0.6970   22.5600 C   0  0  0  0  0  0  0  0  0  0  0  0
   12.9910   -0.4650   22.4750 C   0  0  0  0  0  0  0  0  0  0  0  0
   12.4130   -1.6860   22.0970 C   0  0  0  0  0  0  0  0  0  0  0  0
   11.0430   -1.7500   21.7980 C   0  0  0  0  0  0  0  0  0  0  0  0
   10.2770   -0.5790   21.7940 C   0  0  0  0  0  0  0  0  0  0  0  0
    8.8840   -0.6190   21.5840 N   0  0  0  0  0  0  0  0  0  0  0  0
    8.2540   -0.3780   20.3980 C   0  0  0  0  0  0  0  0  0  0  0  0
    8.8170   -0.3310   19.3260 O   0  0  0  0  0  0  0  0  0  0  0  0
    6.9150   -0.1350   20.5360 N   0  0  0  0  0  0  0  0  0  0  0  0
    6.0960    0.4420   19.5350 C   0  0  0  0  0  0  0  0  0  0  0  0
    5.2080    1.4650   19.8910 C   0  0  0  0  0  0  0  0  0  0  0  0
    4.5150    2.1150   18.8610 C   0  0  0  0  0  0  0  0  0  0  0  0
    4.7600    1.7580   17.5270 C   0  0  0  0  0  0  0  0  0  0  0  0
    5.5740    0.7370   17.1820 N   0  0  0  0  0  0  0  0  0  0  0  0
    6.2240    0.0980   18.1730 C   0  0  0  0  0  0  0  0  0  0  0  0
   10.8720    0.6450   22.1210 C   0  0  0  0  0  0  0  0  0  0  0  0
  1  2  1  0
  2  3  1  0
  3  4  2  0
  3  5  1  0
  5  6  1  0
  5  7  1  0
  7  8  1  0
  8  9  1  0
  9 24  2  0
  9 10  1  0
 10 11  2  0
 11 12  1  0
 12 13  2  0
 13 14  1  0
 13 24  1  0
 14 15  1  0
 15 16  2  0
 15 17  1  0
 17 18  1  0
 18 19  2  0
 18 23  1  0
 19 20  1  0
 20 21  2  0
 21 22  1  0
 22 23  2  0
M  END
>  <original SMILES>  (735) 
CSC(=S)N(C)CCc1cccc(NC(=O)Nc2cccnc2)c1

>  <AutoDock Predicted Affinity>  (735) 
-5.55768

>  <ref_pdb>  (735) 
x0434_0

>  <ref_mols>  (735) 
x0434_0

>  <creator>  (735) 
Will Poole

>  <energy minimised>  (735) 
True

$$$$
WPC1386_minimised.pdb
     RDKit          3D

 23 24  0  0  0  0  0  0  0  0999 V2000
    8.4540    4.9580   22.5340 C   0  0  0  0  0  0  0  0  0  0  0  0
    9.7460    6.0360   23.3030 S   0  0  0  0  0  0  0  0  0  0  0  0
   11.2620    5.0430   23.3370 C   0  0  0  0  0  0  0  0  0  0  0  0
   12.7400    5.6370   23.8070 S   0  0  0  0  0  0  0  0  0  0  0  0
   11.1030    3.7000   23.1220 N   0  0  0  0  0  0  0  0  0  0  0  0
   10.3040    2.8970   24.0480 C   0  0  0  0  0  0  0  0  0  0  0  0
   11.1610    1.7670   24.6390 C   0  0  0  0  0  0  0  0  0  0  0  0
   11.4560    0.6900   23.6240 C   0  0  0  0  0  0  0  0  0  0  0  0
   12.7520    0.4590   23.1310 C   0  0  0  0  0  0  0  0  0  0  0  0
   12.9490   -0.4760   22.1010 C   0  0  0  0  0  0  0  0  0  0  0  0
   11.8460   -1.1410   21.5380 C   0  0  0  0  0  0  0  0  0  0  0  0
   10.5570   -0.8970   22.0320 C   0  0  0  0  0  0  0  0  0  0  0  0
    9.3970   -1.3180   21.3570 N   0  0  0  0  0  0  0  0  0  0  0  0
    8.5970   -0.4210   20.6990 C   0  0  0  0  0  0  0  0  0  0  0  0
    8.9220    0.7330   20.5000 O   0  0  0  0  0  0  0  0  0  0  0  0
    7.3870   -0.9080   20.2920 N   0  0  0  0  0  0  0  0  0  0  0  0
    6.4810   -0.1700   19.4920 C   0  0  0  0  0  0  0  0  0  0  0  0
    5.7810    0.9180   20.0340 C   0  0  0  0  0  0  0  0  0  0  0  0
    4.9930    1.6910   19.1670 C   0  0  0  0  0  0  0  0  0  0  0  0
    4.9630    1.3820   17.7980 C   0  0  0  0  0  0  0  0  0  0  0  0
    5.6200    0.3210   17.2780 N   0  0  0  0  0  0  0  0  0  0  0  0
    6.3640   -0.4290   18.1140 C   0  0  0  0  0  0  0  0  0  0  0  0
   10.3750   -0.0190   23.0990 C   0  0  0  0  0  0  0  0  0  0  0  0
  1  2  1  0
  2  3  1  0
  3  4  2  0
  3  5  1  0
  5  6  1  0
  6  7  1  0
  7  8  1  0
  8 23  2  0
  8  9  1  0
  9 10  2  0
 10 11  1  0
 11 12  2  0
 12 13  1  0
 12 23  1  0
 13 14  1  0
 14 15  2  0
 14 16  1  0
 16 17  1  0
 17 18  2  0
 17 22  1  0
 18 19  1  0
 19 20  2  0
 20 21  1  0
 21 22  2  0
M  END
>  <original SMILES>  (736) 
CSC(=S)NCCc1cccc(NC(=O)Nc2cccnc2)c1

>  <AutoDock Predicted Affinity>  (736) 
-5.443657

>  <ref_pdb>  (736) 
x0434_0

>  <ref_mols>  (736) 
x0434_0

>  <creator>  (736) 
Will Poole

>  <energy minimised>  (736) 
True

$$$$
WPC2403_minimised.pdb
     RDKit          3D

 24 25  0  0  0  0  0  0  0  0999 V2000
    8.3650    4.9250   22.3020 C   0  0  0  0  0  0  0  0  0  0  0  0
    9.4060    6.2390   23.0710 S   0  0  0  0  0  0  0  0  0  0  0  0
   11.0570    5.4090   23.1590 C   0  0  0  0  0  0  0  0  0  0  0  0
   11.0610    4.0750   23.9070 C   0  0  0  0  0  0  0  0  0  0  0  0
   10.1770    3.7700   24.6840 O   0  0  0  0  0  0  0  0  0  0  0  0
   12.1350    3.2260   23.6720 N   0  0  0  0  0  0  0  0  0  0  0  0
   13.3290    3.6360   22.9120 C   0  0  0  0  0  0  0  0  0  0  0  0
   12.1420    1.8510   24.2050 C   0  0  0  0  0  0  0  0  0  0  0  0
   11.6330    0.8110   23.2360 C   0  0  0  0  0  0  0  0  0  0  0  0
   12.5300   -0.0470   22.5750 C   0  0  0  0  0  0  0  0  0  0  0  0
   12.0410   -1.0700   21.7500 C   0  0  0  0  0  0  0  0  0  0  0  0
   10.6580   -1.2190   21.5720 C   0  0  0  0  0  0  0  0  0  0  0  0
    9.7660   -0.3350   22.1950 C   0  0  0  0  0  0  0  0  0  0  0  0
    8.3900   -0.3830   21.9000 N   0  0  0  0  0  0  0  0  0  0  0  0
    7.8860   -0.1290   20.6570 C   0  0  0  0  0  0  0  0  0  0  0  0
    8.5790   -0.0060   19.6660 O   0  0  0  0  0  0  0  0  0  0  0  0
    6.5280    0.0290   20.6280 N   0  0  0  0  0  0  0  0  0  0  0  0
    5.8120    0.5840   19.5400 C   0  0  0  0  0  0  0  0  0  0  0  0
    4.8610    1.5800   19.7920 C   0  0  0  0  0  0  0  0  0  0  0  0
    4.2870    2.2260   18.6890 C   0  0  0  0  0  0  0  0  0  0  0  0
    4.6990    1.8860   17.3930 C   0  0  0  0  0  0  0  0  0  0  0  0
    5.5730    0.8860   17.1390 N   0  0  0  0  0  0  0  0  0  0  0  0
    6.1170    0.2570   18.2000 C   0  0  0  0  0  0  0  0  0  0  0  0
   10.2520    0.6700   23.0380 C   0  0  0  0  0  0  0  0  0  0  0  0
  1  2  1  0
  2  3  1  0
  3  4  1  0
  4  5  2  0
  4  6  1  0
  6  7  1  0
  6  8  1  0
  8  9  1  0
  9 24  2  0
  9 10  1  0
 10 11  2  0
 11 12  1  0
 12 13  2  0
 13 14  1  0
 13 24  1  0
 14 15  1  0
 15 16  2  0
 15 17  1  0
 17 18  1  0
 18 19  2  0
 18 23  1  0
 19 20  1  0
 20 21  2  0
 21 22  1  0
 22 23  2  0
M  END
>  <original SMILES>  (737) 
CSCC(=O)N(C)Cc1cccc(NC(=O)Nc2cccnc2)c1

>  <AutoDock Predicted Affinity>  (737) 
-5.80205

>  <ref_pdb>  (737) 
x0434_0

>  <ref_mols>  (737) 
x0434_0

>  <creator>  (737) 
Will Poole

>  <energy minimised>  (737) 
True

$$$$
WPC2419_minimised.pdb
     RDKit          3D

 19 20  0  0  0  0  0  0  0  0999 V2000
   11.7230    4.6140   22.8700 C   0  0  0  0  0  0  0  0  0  0  0  0
   10.3460    4.3830   24.0680 S   0  0  0  0  0  0  0  0  0  0  0  0
   10.8180    2.7410   24.7510 C   0  0  0  0  0  0  0  0  0  0  0  0
   10.7740    1.6160   23.7360 C   0  0  0  0  0  0  0  0  0  0  0  0
   11.9550    1.0380   23.2340 C   0  0  0  0  0  0  0  0  0  0  0  0
   11.8860   -0.0180   22.3090 C   0  0  0  0  0  0  0  0  0  0  0  0
   10.6340   -0.4960   21.8860 C   0  0  0  0  0  0  0  0  0  0  0  0
    9.4580    0.0810   22.3900 C   0  0  0  0  0  0  0  0  0  0  0  0
    8.1860   -0.3050   21.9270 N   0  0  0  0  0  0  0  0  0  0  0  0
    7.7670   -0.1180   20.6430 C   0  0  0  0  0  0  0  0  0  0  0  0
    8.5100    0.0690   19.7010 O   0  0  0  0  0  0  0  0  0  0  0  0
    6.4050   -0.0770   20.5340 N   0  0  0  0  0  0  0  0  0  0  0  0
    5.7240    0.5100   19.4440 C   0  0  0  0  0  0  0  0  0  0  0  0
    4.7740    1.5070   19.7010 C   0  0  0  0  0  0  0  0  0  0  0  0
    4.2320    2.1860   18.6030 C   0  0  0  0  0  0  0  0  0  0  0  0
    4.6680    1.8700   17.3090 C   0  0  0  0  0  0  0  0  0  0  0  0
    5.5530    0.8800   17.0510 N   0  0  0  0  0  0  0  0  0  0  0  0
    6.0730    0.2250   18.1080 C   0  0  0  0  0  0  0  0  0  0  0  0
    9.5300    1.1290   23.3140 C   0  0  0  0  0  0  0  0  0  0  0  0
  1  2  1  0
  2  3  1  0
  3  4  1  0
  4 19  2  0
  4  5  1  0
  5  6  2  0
  6  7  1  0
  7  8  2  0
  8  9  1  0
  8 19  1  0
  9 10  1  0
 10 11  2  0
 10 12  1  0
 12 13  1  0
 13 14  2  0
 13 18  1  0
 14 15  1  0
 15 16  2  0
 16 17  1  0
 17 18  2  0
M  END
>  <original SMILES>  (738) 
CSCc1cccc(NC(=O)Nc2cccnc2)c1

>  <AutoDock Predicted Affinity>  (738) 
-5.14726

>  <ref_pdb>  (738) 
x0434_0

>  <ref_mols>  (738) 
x0434_0

>  <creator>  (738) 
Will Poole

>  <energy minimised>  (738) 
True

$$$$
WPC2447_minimised.pdb
     RDKit          3D

 18 19  0  0  0  0  0  0  0  0999 V2000
   13.2220    5.0620   22.6290 C   0  0  0  0  0  0  0  0  0  0  0  0
   11.8860    4.5710   23.7950 S   0  0  0  0  0  0  0  0  0  0  0  0
   11.5920    2.8520   23.4040 C   0  0  0  0  0  0  0  0  0  0  0  0
   12.6580    1.9490   23.2520 C   0  0  0  0  0  0  0  0  0  0  0  0
   12.4110    0.6120   22.9030 C   0  0  0  0  0  0  0  0  0  0  0  0
   11.0910    0.1700   22.7140 C   0  0  0  0  0  0  0  0  0  0  0  0
   10.0240    1.0670   22.8730 C   0  0  0  0  0  0  0  0  0  0  0  0
    8.7050    0.6590   22.5800 N   0  0  0  0  0  0  0  0  0  0  0  0
    8.2300    0.5290   21.3050 C   0  0  0  0  0  0  0  0  0  0  0  0
    8.9430    0.5800   20.3260 O   0  0  0  0  0  0  0  0  0  0  0  0
    6.8700    0.4010   21.2050 N   0  0  0  0  0  0  0  0  0  0  0  0
    6.1410    0.6830   20.0220 C   0  0  0  0  0  0  0  0  0  0  0  0
    5.1110    1.6290   20.0920 C   0  0  0  0  0  0  0  0  0  0  0  0
    4.5250    2.0460   18.8920 C   0  0  0  0  0  0  0  0  0  0  0  0
    4.9860    1.5210   17.6770 C   0  0  0  0  0  0  0  0  0  0  0  0
    5.9310    0.5580   17.5980 N   0  0  0  0  0  0  0  0  0  0  0  0
    6.5080    0.1680   18.7570 C   0  0  0  0  0  0  0  0  0  0  0  0
   10.2760    2.4050   23.2170 C   0  0  0  0  0  0  0  0  0  0  0  0
  1  2  1  0
  2  3  1  0
  3 18  2  0
  3  4  1  0
  4  5  2  0
  5  6  1  0
  6  7  2  0
  7  8  1  0
  7 18  1  0
  8  9  1  0
  9 10  2  0
  9 11  1  0
 11 12  1  0
 12 13  2  0
 12 17  1  0
 13 14  1  0
 14 15  2  0
 15 16  1  0
 16 17  2  0
M  END
>  <original SMILES>  (739) 
CSc1cccc(NC(=O)Nc2cccnc2)c1

>  <AutoDock Predicted Affinity>  (739) 
-5.44073

>  <ref_pdb>  (739) 
x0434_0

>  <ref_mols>  (739) 
x0434_0

>  <creator>  (739) 
Will Poole

>  <energy minimised>  (739) 
True

$$$$
WPC2004_minimised.pdb
     RDKit          3D

 20 21  0  0  0  0  0  0  0  0999 V2000
   12.2580    6.2290   24.4180 C   0  0  0  0  0  0  0  0  0  0  0  0
   12.2210    5.0340   23.0270 S   0  0  1  0  0  0  0  0  0  0  0  0
   13.7800    4.4810   23.3980 O   0  0  0  0  0  0  0  0  0  0  0  0
   11.3520    3.6950   23.9670 C   0  0  0  0  0  0  0  0  0  0  0  0
   11.2650    2.3340   23.2730 C   0  0  0  0  0  0  0  0  0  0  0  0
   12.4080    1.5480   23.0260 C   0  0  0  0  0  0  0  0  0  0  0  0
   12.2950    0.2860   22.4180 C   0  0  0  0  0  0  0  0  0  0  0  0
   11.0270   -0.2240   22.0950 C   0  0  0  0  0  0  0  0  0  0  0  0
    9.8830    0.5330   22.3800 C   0  0  0  0  0  0  0  0  0  0  0  0
    8.5920    0.0540   22.0960 N   0  0  0  0  0  0  0  0  0  0  0  0
    8.0440   -0.0130   20.8480 C   0  0  0  0  0  0  0  0  0  0  0  0
    8.6730    0.0300   19.8110 O   0  0  0  0  0  0  0  0  0  0  0  0
    6.6760   -0.0610   20.8540 N   0  0  0  0  0  0  0  0  0  0  0  0
    5.8870    0.3560   19.7570 C   0  0  0  0  0  0  0  0  0  0  0  0
    4.9230    1.3490   19.9700 C   0  0  0  0  0  0  0  0  0  0  0  0
    4.2810    1.8860   18.8480 C   0  0  0  0  0  0  0  0  0  0  0  0
    4.6290    1.4280   17.5680 C   0  0  0  0  0  0  0  0  0  0  0  0
    5.5150    0.4300   17.3540 N   0  0  0  0  0  0  0  0  0  0  0  0
    6.1420   -0.0770   18.4360 C   0  0  0  0  0  0  0  0  0  0  0  0
   10.0030    1.8000   22.9620 C   0  0  0  0  0  0  0  0  0  0  0  0
  2  1  1  1
  2  3  1  0
  2  4  1  0
  4  5  1  0
  5 20  2  0
  5  6  1  0
  6  7  2  0
  7  8  1  0
  8  9  2  0
  9 10  1  0
  9 20  1  0
 10 11  1  0
 11 12  2  0
 11 13  1  0
 13 14  1  0
 14 15  2  0
 14 19  1  0
 15 16  1  0
 16 17  2  0
 17 18  1  0
 18 19  2  0
M  END
>  <original SMILES>  (740) 
C[SH](O)Cc1cccc(NC(=O)Nc2cccnc2)c1

>  <AutoDock Predicted Affinity>  (740) 
-5.59563

>  <ref_pdb>  (740) 
x0434_0

>  <ref_mols>  (740) 
x0434_0

>  <creator>  (740) 
Will Poole

>  <energy minimised>  (740) 
True

$$$$
WPC1899_minimised.pdb
     RDKit          3D

 24 26  0  0  0  0  0  0  0  0999 V2000
    8.2790    5.4160   22.2530 C   0  0  0  0  0  0  0  0  0  0  0  0
    9.4430    4.8480   22.9960 C   0  0  0  0  0  0  0  0  0  0  0  0
   10.5010    5.5690   23.4530 C   0  0  0  0  0  0  0  0  0  0  0  0
   11.4590    4.6450   24.0100 C   0  0  0  0  0  0  0  0  0  0  0  0
   12.5320    4.9080   24.5220 O   0  0  0  0  0  0  0  0  0  0  0  0
   10.8530    3.4110   23.8640 N   0  0  0  0  0  0  0  0  0  0  0  0
   11.2990    2.1240   24.4050 C   0  0  0  0  0  0  0  0  0  0  0  0
   11.0910    0.9430   23.4760 C   0  0  0  0  0  0  0  0  0  0  0  0
   12.1860    0.2970   22.8750 C   0  0  0  0  0  0  0  0  0  0  0  0
   11.9730   -0.7960   22.0170 C   0  0  0  0  0  0  0  0  0  0  0  0
   10.6630   -1.2180   21.7370 C   0  0  0  0  0  0  0  0  0  0  0  0
    9.5730   -0.5510   22.3130 C   0  0  0  0  0  0  0  0  0  0  0  0
    8.2540   -0.8060   21.8970 N   0  0  0  0  0  0  0  0  0  0  0  0
    7.8130   -0.4860   20.6440 C   0  0  0  0  0  0  0  0  0  0  0  0
    8.5430   -0.3070   19.6900 O   0  0  0  0  0  0  0  0  0  0  0  0
    6.4590   -0.3060   20.5810 N   0  0  0  0  0  0  0  0  0  0  0  0
    5.7960    0.3550   19.5200 C   0  0  0  0  0  0  0  0  0  0  0  0
    4.8930    1.3830   19.8180 C   0  0  0  0  0  0  0  0  0  0  0  0
    4.3640    2.1170   18.7480 C   0  0  0  0  0  0  0  0  0  0  0  0
    4.7660    1.8210   17.4370 C   0  0  0  0  0  0  0  0  0  0  0  0
    5.6060    0.8050   17.1410 N   0  0  0  0  0  0  0  0  0  0  0  0
    6.1130    0.0970   18.1690 C   0  0  0  0  0  0  0  0  0  0  0  0
    9.7880    0.5010   23.2060 C   0  0  0  0  0  0  0  0  0  0  0  0
    9.5690    3.5180   23.2530 O   0  0  0  0  0  0  0  0  0  0  0  0
  1  2  1  0
  2  3  2  0
  2 24  1  0
  3  4  1  0
  4  5  2  0
  4  6  1  0
  6 24  1  0
  6  7  1  0
  7  8  1  0
  8 23  1  0
  8  9  2  0
  9 10  1  0
 10 11  2  0
 11 12  1  0
 12 13  1  0
 12 23  2  0
 13 14  1  0
 14 15  2  0
 14 16  1  0
 16 17  1  0
 17 18  2  0
 17 22  1  0
 18 19  1  0
 19 20  2  0
 20 21  1  0
 21 22  2  0
M  END
>  <original SMILES>  (741) 
Cc1cc(=O)n(Cc2cccc(NC(=O)Nc3cccnc3)c2)o1

>  <AutoDock Predicted Affinity>  (741) 
-6.549645

>  <ref_pdb>  (741) 
x0434_0

>  <ref_mols>  (741) 
x0434_0

>  <creator>  (741) 
Will Poole

>  <energy minimised>  (741) 
True

$$$$
WPC2055_minimised.pdb
     RDKit          3D

 24 26  0  0  0  0  0  0  0  0999 V2000
   13.9900    5.6290   22.0310 C   0  0  0  0  0  0  0  0  0  0  0  0
   12.9630    5.3560   23.0830 C   0  0  0  0  0  0  0  0  0  0  0  0
   12.2010    4.1690   23.0560 C   0  0  0  0  0  0  0  0  0  0  0  0
   11.4100    4.2790   24.1420 C   0  0  0  0  0  0  0  0  0  0  0  0
   10.4670    3.2280   24.6390 C   0  0  0  0  0  0  0  0  0  0  0  0
   11.1410    1.8520   24.8480 C   0  0  0  0  0  0  0  0  0  0  0  0
   11.0010    0.8830   23.6970 C   0  0  0  0  0  0  0  0  0  0  0  0
   12.1360    0.3720   23.0410 C   0  0  0  0  0  0  0  0  0  0  0  0
   11.9890   -0.6020   22.0410 C   0  0  0  0  0  0  0  0  0  0  0  0
   10.7050   -1.0400   21.6810 C   0  0  0  0  0  0  0  0  0  0  0  0
    9.5750   -0.4980   22.3070 C   0  0  0  0  0  0  0  0  0  0  0  0
    8.2780   -0.7890   21.8480 N   0  0  0  0  0  0  0  0  0  0  0  0
    7.8260   -0.3890   20.6240 C   0  0  0  0  0  0  0  0  0  0  0  0
    8.5460   -0.0170   19.7190 O   0  0  0  0  0  0  0  0  0  0  0  0
    6.4630   -0.3650   20.5330 N   0  0  0  0  0  0  0  0  0  0  0  0
    5.7650    0.2930   19.4950 C   0  0  0  0  0  0  0  0  0  0  0  0
    4.8380    1.2930   19.8160 C   0  0  0  0  0  0  0  0  0  0  0  0
    4.2930    2.0370   18.7610 C   0  0  0  0  0  0  0  0  0  0  0  0
    4.7010    1.7740   17.4440 C   0  0  0  0  0  0  0  0  0  0  0  0
    5.5650    0.7850   17.1260 N   0  0  0  0  0  0  0  0  0  0  0  0
    6.0920    0.0730   18.1410 C   0  0  0  0  0  0  0  0  0  0  0  0
    9.7240    0.4410   23.3290 C   0  0  0  0  0  0  0  0  0  0  0  0
   11.6190    5.4320   24.8280 O   0  0  0  0  0  0  0  0  0  0  0  0
   12.6410    6.1190   24.1220 N   0  0  0  0  0  0  0  0  0  0  0  0
  1  2  1  0
  2  3  1  0
  2 24  2  0
  3  4  2  0
  4 23  1  0
  4  5  1  0
  5  6  1  0
  6  7  1  0
  7 22  1  0
  7  8  2  0
  8  9  1  0
  9 10  2  0
 10 11  1  0
 11 12  1  0
 11 22  2  0
 12 13  1  0
 13 14  2  0
 13 15  1  0
 15 16  1  0
 16 17  2  0
 16 21  1  0
 17 18  1  0
 18 19  2  0
 19 20  1  0
 20 21  2  0
 23 24  1  0
M  END
>  <original SMILES>  (742) 
Cc1cc(CCc2cccc(NC(=O)Nc3cccnc3)c2)on1

>  <AutoDock Predicted Affinity>  (742) 
-6.408957

>  <ref_pdb>  (742) 
x0434_0

>  <ref_mols>  (742) 
x0434_0

>  <creator>  (742) 
Will Poole

>  <energy minimised>  (742) 
True

$$$$
WPC1798_minimised.pdb
     RDKit          3D

 17 18  0  0  0  0  0  0  0  0999 V2000
   12.0330    2.9450   23.2230 C   0  0  0  0  0  0  0  0  0  0  0  0
   11.6490    1.5330   22.8210 C   0  0  0  0  0  0  0  0  0  0  0  0
   12.6290    0.5480   22.5990 C   0  0  0  0  0  0  0  0  0  0  0  0
   12.2530   -0.7370   22.1700 C   0  0  0  0  0  0  0  0  0  0  0  0
   10.8960   -1.0430   21.9780 C   0  0  0  0  0  0  0  0  0  0  0  0
    9.9180   -0.0640   22.2070 C   0  0  0  0  0  0  0  0  0  0  0  0
    8.5590   -0.3190   21.9380 N   0  0  0  0  0  0  0  0  0  0  0  0
    7.9960   -0.1380   20.7070 C   0  0  0  0  0  0  0  0  0  0  0  0
    8.6460    0.0350   19.6960 O   0  0  0  0  0  0  0  0  0  0  0  0
    6.6270   -0.0990   20.7100 N   0  0  0  0  0  0  0  0  0  0  0  0
    5.8590    0.4290   19.6430 C   0  0  0  0  0  0  0  0  0  0  0  0
    4.9160    1.4280   19.9140 C   0  0  0  0  0  0  0  0  0  0  0  0
    4.3060    2.0630   18.8250 C   0  0  0  0  0  0  0  0  0  0  0  0
    4.6670    1.6990   17.5190 C   0  0  0  0  0  0  0  0  0  0  0  0
    5.5340    0.6980   17.2480 N   0  0  0  0  0  0  0  0  0  0  0  0
    6.1220    0.0890   18.2970 C   0  0  0  0  0  0  0  0  0  0  0  0
   10.2960    1.2200   22.6240 C   0  0  0  0  0  0  0  0  0  0  0  0
  1  2  1  0
  2 17  2  0
  2  3  1  0
  3  4  2  0
  4  5  1  0
  5  6  2  0
  6  7  1  0
  6 17  1  0
  7  8  1  0
  8  9  2  0
  8 10  1  0
 10 11  1  0
 11 12  2  0
 11 16  1  0
 12 13  1  0
 13 14  2  0
 14 15  1  0
 15 16  2  0
M  END
>  <original SMILES>  (743) 
Cc1cccc(NC(=O)Nc2cccnc2)c1

>  <AutoDock Predicted Affinity>  (743) 
-5.65364

>  <ref_pdb>  (743) 
x0434_0

>  <ref_mols>  (743) 
x0434_0

>  <creator>  (743) 
Will Poole

>  <energy minimised>  (743) 
True

$$$$
WPC1178_minimised.pdb
     RDKit          3D

 24 26  0  0  0  0  0  0  0  0999 V2000
   13.5710    5.3010   22.1720 C   0  0  0  0  0  0  0  0  0  0  0  0
   12.5660    4.5360   23.0140 C   0  0  0  0  0  0  0  0  0  0  0  0
   11.3350    5.1060   23.3880 C   0  0  0  0  0  0  0  0  0  0  0  0
   10.4250    4.3840   24.1740 C   0  0  0  0  0  0  0  0  0  0  0  0
   10.7350    3.0790   24.5860 C   0  0  0  0  0  0  0  0  0  0  0  0
   11.9440    2.4950   24.1810 C   0  0  0  0  0  0  0  0  0  0  0  0
   12.3680    0.8440   24.6680 S   0  0  0  0  0  0  0  0  0  0  0  0
   11.5810   -0.0370   23.3630 C   0  0  0  0  0  0  0  0  0  0  0  0
   12.3680   -0.7210   22.4270 C   0  0  0  0  0  0  0  0  0  0  0  0
   11.7480   -1.4920   21.4400 C   0  0  0  0  0  0  0  0  0  0  0  0
   10.3480   -1.5400   21.3780 C   0  0  0  0  0  0  0  0  0  0  0  0
    9.5680   -0.7670   22.2450 C   0  0  0  0  0  0  0  0  0  0  0  0
    8.1940   -0.6100   21.9820 N   0  0  0  0  0  0  0  0  0  0  0  0
    7.7260   -0.1400   20.7850 C   0  0  0  0  0  0  0  0  0  0  0  0
    8.4420    0.1310   19.8400 O   0  0  0  0  0  0  0  0  0  0  0  0
    6.3690    0.0150   20.7330 N   0  0  0  0  0  0  0  0  0  0  0  0
    5.6800    0.5880   19.6360 C   0  0  0  0  0  0  0  0  0  0  0  0
    4.7370    1.5960   19.8660 C   0  0  0  0  0  0  0  0  0  0  0  0
    4.2000    2.2480   18.7490 C   0  0  0  0  0  0  0  0  0  0  0  0
    4.6300    1.8920   17.4620 C   0  0  0  0  0  0  0  0  0  0  0  0
    5.4940    0.8780   17.2290 N   0  0  0  0  0  0  0  0  0  0  0  0
    6.0120    0.2540   18.3040 C   0  0  0  0  0  0  0  0  0  0  0  0
   10.1830   -0.0410   23.2670 C   0  0  0  0  0  0  0  0  0  0  0  0
   12.8560    3.2230   23.4080 C   0  0  0  0  0  0  0  0  0  0  0  0
  1  2  1  0
  2 24  2  0
  2  3  1  0
  3  4  2  0
  4  5  1  0
  5  6  2  0
  6  7  1  0
  6 24  1  0
  7  8  1  0
  8 23  1  0
  8  9  2  0
  9 10  1  0
 10 11  2  0
 11 12  1  0
 12 13  1  0
 12 23  2  0
 13 14  1  0
 14 15  2  0
 14 16  1  0
 16 17  1  0
 17 18  2  0
 17 22  1  0
 18 19  1  0
 19 20  2  0
 20 21  1  0
 21 22  2  0
M  END
>  <original SMILES>  (744) 
Cc1cccc(Sc2cccc(NC(=O)Nc3cccnc3)c2)c1

>  <AutoDock Predicted Affinity>  (744) 
-6.296515

>  <ref_pdb>  (744) 
x0434_0

>  <ref_mols>  (744) 
x0434_0

>  <creator>  (744) 
Will Poole

>  <energy minimised>  (744) 
True

$$$$
WPC1624_minimised.pdb
     RDKit          3D

 24 26  0  0  0  0  0  0  0  0999 V2000
    9.4690    6.1360   22.9900 C   0  0  0  0  0  0  0  0  0  0  0  0
   10.5660    5.1680   23.3150 C   0  0  0  0  0  0  0  0  0  0  0  0
   10.3900    3.8630   23.6720 C   0  0  0  0  0  0  0  0  0  0  0  0
   11.6550    3.3020   23.7600 N   0  0  0  0  0  0  0  0  0  0  0  0
   11.9280    1.9310   24.2060 C   0  0  0  0  0  0  0  0  0  0  0  0
   11.4800    0.8360   23.2590 C   0  0  0  0  0  0  0  0  0  0  0  0
   12.4350    0.0730   22.5650 C   0  0  0  0  0  0  0  0  0  0  0  0
   12.0270   -0.9950   21.7510 C   0  0  0  0  0  0  0  0  0  0  0  0
   10.6600   -1.2710   21.5990 C   0  0  0  0  0  0  0  0  0  0  0  0
    9.7040   -0.4770   22.2450 C   0  0  0  0  0  0  0  0  0  0  0  0
    8.3350   -0.6030   21.9340 N   0  0  0  0  0  0  0  0  0  0  0  0
    7.8350   -0.3180   20.6930 C   0  0  0  0  0  0  0  0  0  0  0  0
    8.5260   -0.1670   19.7060 O   0  0  0  0  0  0  0  0  0  0  0  0
    6.4770   -0.1530   20.6640 N   0  0  0  0  0  0  0  0  0  0  0  0
    5.7740    0.4420   19.5880 C   0  0  0  0  0  0  0  0  0  0  0  0
    4.8550    1.4640   19.8590 C   0  0  0  0  0  0  0  0  0  0  0  0
    4.2920    2.1400   18.7690 C   0  0  0  0  0  0  0  0  0  0  0  0
    4.6750    1.7950   17.4640 C   0  0  0  0  0  0  0  0  0  0  0  0
    5.5230    0.7780   17.1930 N   0  0  0  0  0  0  0  0  0  0  0  0
    6.0640    0.1270   18.2410 C   0  0  0  0  0  0  0  0  0  0  0  0
   10.1130    0.5460   23.1060 C   0  0  0  0  0  0  0  0  0  0  0  0
   12.6230    4.2490   23.4650 C   0  0  0  0  0  0  0  0  0  0  0  0
   13.8350    4.1600   23.4930 O   0  0  0  0  0  0  0  0  0  0  0  0
   11.9190    5.3870   23.2080 N   0  0  0  0  0  0  0  0  0  0  0  0
  1  2  1  0
  2  3  2  0
  2 24  1  0
  3  4  1  0
  4 22  1  0
  4  5  1  0
  5  6  1  0
  6 21  1  0
  6  7  2  0
  7  8  1  0
  8  9  2  0
  9 10  1  0
 10 11  1  0
 10 21  2  0
 11 12  1  0
 12 13  2  0
 12 14  1  0
 14 15  1  0
 15 16  2  0
 15 20  1  0
 16 17  1  0
 17 18  2  0
 18 19  1  0
 19 20  2  0
 22 24  1  0
 22 23  2  0
M  END
>  <original SMILES>  (745) 
Cc1cn(Cc2cccc(NC(=O)Nc3cccnc3)c2)c(=O)[nH]1

>  <AutoDock Predicted Affinity>  (745) 
-6.85787

>  <ref_pdb>  (745) 
x0434_0

>  <ref_mols>  (745) 
x0434_0

>  <creator>  (745) 
Will Poole

>  <energy minimised>  (745) 
True

$$$$
WPC2620_minimised.pdb
     RDKit          3D

 24 26  0  0  0  0  0  0  0  0999 V2000
   13.4600    5.2260   22.1200 C   0  0  0  0  0  0  0  0  0  0  0  0
   12.6100    4.3190   22.9630 C   0  0  0  0  0  0  0  0  0  0  0  0
   12.9530    3.0730   23.3760 C   0  0  0  0  0  0  0  0  0  0  0  0
   11.8260    2.6470   24.0590 N   0  0  0  0  0  0  0  0  0  0  0  0
   11.6300    1.3160   24.6260 C   0  0  0  0  0  0  0  0  0  0  0  0
   11.1920    0.3250   23.5750 C   0  0  0  0  0  0  0  0  0  0  0  0
   12.1440   -0.3630   22.8030 C   0  0  0  0  0  0  0  0  0  0  0  0
   11.7270   -1.2900   21.8380 C   0  0  0  0  0  0  0  0  0  0  0  0
   10.3560   -1.4870   21.6150 C   0  0  0  0  0  0  0  0  0  0  0  0
    9.4090   -0.7330   22.3200 C   0  0  0  0  0  0  0  0  0  0  0  0
    8.0560   -0.7450   21.9320 N   0  0  0  0  0  0  0  0  0  0  0  0
    7.6400   -0.3970   20.6770 C   0  0  0  0  0  0  0  0  0  0  0  0
    8.3870   -0.2580   19.7270 O   0  0  0  0  0  0  0  0  0  0  0  0
    6.2940   -0.1690   20.6010 N   0  0  0  0  0  0  0  0  0  0  0  0
    5.6460    0.4620   19.5120 C   0  0  0  0  0  0  0  0  0  0  0  0
    4.7150    1.4750   19.7710 C   0  0  0  0  0  0  0  0  0  0  0  0
    4.1980    2.1790   18.6760 C   0  0  0  0  0  0  0  0  0  0  0  0
    4.6370    1.8670   17.3810 C   0  0  0  0  0  0  0  0  0  0  0  0
    5.4960    0.8570   17.1190 N   0  0  0  0  0  0  0  0  0  0  0  0
    5.9930    0.1810   18.1730 C   0  0  0  0  0  0  0  0  0  0  0  0
    9.8240    0.1530   23.3190 C   0  0  0  0  0  0  0  0  0  0  0  0
   10.8180    3.5720   24.0820 N   0  0  0  0  0  0  0  0  0  0  0  0
   11.2950    4.5800   23.3990 C   0  0  0  0  0  0  0  0  0  0  0  0
   10.5140    5.6130   23.0270 N   0  0  0  0  0  0  0  0  0  0  0  0
  1  2  1  0
  2  3  2  0
  2 23  1  0
  3  4  1  0
  4 22  1  0
  4  5  1  0
  5  6  1  0
  6 21  1  0
  6  7  2  0
  7  8  1  0
  8  9  2  0
  9 10  1  0
 10 11  1  0
 10 21  2  0
 11 12  1  0
 12 13  2  0
 12 14  1  0
 14 15  1  0
 15 16  2  0
 15 20  1  0
 16 17  1  0
 17 18  2  0
 18 19  1  0
 19 20  2  0
 22 23  2  0
 23 24  1  0
M  END
>  <original SMILES>  (746) 
Cc1cn(Cc2cccc(NC(=O)Nc3cccnc3)c2)nc1N

>  <AutoDock Predicted Affinity>  (746) 
-6.68496

>  <ref_pdb>  (746) 
x0434_0

>  <ref_mols>  (746) 
x0434_0

>  <creator>  (746) 
Will Poole

>  <energy minimised>  (746) 
True

$$$$
WPC2470_minimised.pdb
     RDKit          3D

 24 26  0  0  0  0  0  0  0  0999 V2000
   14.5790    5.0530   22.2600 C   0  0  0  0  0  0  0  0  0  0  0  0
   13.2720    5.2740   22.9690 C   0  0  0  0  0  0  0  0  0  0  0  0
   12.9640    6.1170   24.0190 N   0  0  0  0  0  0  0  0  0  0  0  0
   11.6300    6.1290   24.3280 N   0  0  0  0  0  0  0  0  0  0  0  0
   11.0800    5.2650   23.4890 C   0  0  0  0  0  0  0  0  0  0  0  0
    9.6130    5.0090   23.3400 C   0  0  0  0  0  0  0  0  0  0  0  0
   12.0870    4.6970   22.6630 C   0  0  0  0  0  0  0  0  0  0  0  0
   12.0310    3.5710   21.3140 S   0  0  0  0  0  0  0  0  0  0  0  0
   11.4060    2.2280   22.2940 C   0  0  0  0  0  0  0  0  0  0  0  0
   12.1520    1.6330   23.3220 C   0  0  0  0  0  0  0  0  0  0  0  0
   11.6190    0.5360   24.0220 C   0  0  0  0  0  0  0  0  0  0  0  0
   10.3660    0.0070   23.6660 C   0  0  0  0  0  0  0  0  0  0  0  0
    9.6400    0.5840   22.6130 C   0  0  0  0  0  0  0  0  0  0  0  0
    8.3810    0.0710   22.2320 N   0  0  0  0  0  0  0  0  0  0  0  0
    7.8970    0.0680   20.9500 C   0  0  0  0  0  0  0  0  0  0  0  0
    8.5790    0.2740   19.9650 O   0  0  0  0  0  0  0  0  0  0  0  0
    6.5420   -0.0910   20.8690 N   0  0  0  0  0  0  0  0  0  0  0  0
    5.7950    0.3620   19.7560 C   0  0  0  0  0  0  0  0  0  0  0  0
    4.8360    1.3620   19.9580 C   0  0  0  0  0  0  0  0  0  0  0  0
    4.2540    1.9440   18.8260 C   0  0  0  0  0  0  0  0  0  0  0  0
    4.6540    1.5230   17.5490 C   0  0  0  0  0  0  0  0  0  0  0  0
    5.5440    0.5260   17.3440 N   0  0  0  0  0  0  0  0  0  0  0  0
    6.1140   -0.0250   18.4350 C   0  0  0  0  0  0  0  0  0  0  0  0
   10.1570    1.7090   21.9530 C   0  0  0  0  0  0  0  0  0  0  0  0
  1  2  1  0
  2  3  1  0
  2  7  2  0
  3  4  1  0
  4  5  2  0
  5  6  1  0
  5  7  1  0
  7  8  1  0
  8  9  1  0
  9 24  1  0
  9 10  2  0
 10 11  1  0
 11 12  2  0
 12 13  1  0
 13 14  1  0
 13 24  2  0
 14 15  1  0
 15 16  2  0
 15 17  1  0
 17 18  1  0
 18 19  2  0
 18 23  1  0
 19 20  1  0
 20 21  2  0
 21 22  1  0
 22 23  2  0
M  END
>  <original SMILES>  (747) 
Cc1n[nH]c(C)c1Sc1cccc(NC(=O)Nc2cccnc2)c1

>  <AutoDock Predicted Affinity>  (747) 
-6.303687

>  <ref_pdb>  (747) 
x0434_0

>  <ref_mols>  (747) 
x0434_0

>  <creator>  (747) 
Will Poole

>  <energy minimised>  (747) 
True

$$$$
WPC1725_minimised.pdb
     RDKit          3D

 24 26  0  0  0  0  0  0  0  0999 V2000
   12.6780    7.3670   25.5930 C   0  0  0  0  0  0  0  0  0  0  0  0
   12.1750    6.2650   24.7070 C   0  0  0  0  0  0  0  0  0  0  0  0
   12.9440    5.2470   24.3780 N   0  0  0  0  0  0  0  0  0  0  0  0
   12.2440    4.3810   23.5740 C   0  0  0  0  0  0  0  0  0  0  0  0
   12.8140    3.0990   23.0740 C   0  0  0  0  0  0  0  0  0  0  0  0
   12.3540    1.7180   24.1910 S   0  0  0  0  0  0  0  0  0  0  0  0
   11.6980    0.4940   23.1110 C   0  0  0  0  0  0  0  0  0  0  0  0
   12.5590   -0.3440   22.3900 C   0  0  0  0  0  0  0  0  0  0  0  0
   12.0220   -1.3590   21.5880 C   0  0  0  0  0  0  0  0  0  0  0  0
   10.6290   -1.5060   21.4930 C   0  0  0  0  0  0  0  0  0  0  0  0
    9.7750   -0.6250   22.1680 C   0  0  0  0  0  0  0  0  0  0  0  0
    8.3950   -0.6400   21.9020 N   0  0  0  0  0  0  0  0  0  0  0  0
    7.8760   -0.2510   20.7000 C   0  0  0  0  0  0  0  0  0  0  0  0
    8.5610    0.0330   19.7370 O   0  0  0  0  0  0  0  0  0  0  0  0
    6.5120   -0.1650   20.6730 N   0  0  0  0  0  0  0  0  0  0  0  0
    5.7860    0.4220   19.6090 C   0  0  0  0  0  0  0  0  0  0  0  0
    4.8550    1.4290   19.8890 C   0  0  0  0  0  0  0  0  0  0  0  0
    4.2820    2.1040   18.8040 C   0  0  0  0  0  0  0  0  0  0  0  0
    4.6670    1.7710   17.4970 C   0  0  0  0  0  0  0  0  0  0  0  0
    5.5250    0.7650   17.2170 N   0  0  0  0  0  0  0  0  0  0  0  0
    6.0780    0.1170   18.2610 C   0  0  0  0  0  0  0  0  0  0  0  0
   10.3100    0.3640   22.9980 C   0  0  0  0  0  0  0  0  0  0  0  0
   10.9500    4.7250   23.2960 C   0  0  0  0  0  0  0  0  0  0  0  0
   10.5560    6.2440   24.0280 S   0  0  0  0  0  0  0  0  0  0  0  0
  1  2  1  0
  2  3  2  0
  2 24  1  0
  3  4  1  0
  4 23  2  0
  4  5  1  0
  5  6  1  0
  6  7  1  0
  7 22  1  0
  7  8  2  0
  8  9  1  0
  9 10  2  0
 10 11  1  0
 11 12  1  0
 11 22  2  0
 12 13  1  0
 13 14  2  0
 13 15  1  0
 15 16  1  0
 16 17  2  0
 16 21  1  0
 17 18  1  0
 18 19  2  0
 19 20  1  0
 20 21  2  0
 23 24  1  0
M  END
>  <original SMILES>  (748) 
Cc1nc(CSc2cccc(NC(=O)Nc3cccnc3)c2)cs1

>  <AutoDock Predicted Affinity>  (748) 
-5.526487

>  <ref_pdb>  (748) 
x0434_0

>  <ref_mols>  (748) 
x0434_0

>  <creator>  (748) 
Will Poole

>  <energy minimised>  (748) 
True

$$$$
WPC2015_minimised.pdb
     RDKit          3D

 24 26  0  0  0  0  0  0  0  0999 V2000
   10.6090    5.3510   23.5690 C   0  0  0  0  0  0  0  0  0  0  0  0
   11.9280    4.6960   23.1830 C   0  0  0  0  0  0  0  0  0  0  0  0
   12.8490    5.5010   22.6030 N   0  0  0  0  0  0  0  0  0  0  0  0
   14.0350    4.9320   22.2930 C   0  0  0  0  0  0  0  0  0  0  0  0
   14.3080    3.5790   22.5790 C   0  0  0  0  0  0  0  0  0  0  0  0
   13.4050    2.7750   23.1840 N   0  0  0  0  0  0  0  0  0  0  0  0
   12.2070    3.3340   23.4770 C   0  0  0  0  0  0  0  0  0  0  0  0
   11.0580    2.3660   24.4370 S   0  0  0  0  0  0  0  0  0  0  0  0
   10.8300    0.9130   23.4390 C   0  0  0  0  0  0  0  0  0  0  0  0
   11.8950    0.0690   23.0780 C   0  0  0  0  0  0  0  0  0  0  0  0
   11.6540   -1.0750   22.2980 C   0  0  0  0  0  0  0  0  0  0  0  0
   10.3470   -1.3740   21.8810 C   0  0  0  0  0  0  0  0  0  0  0  0
    9.2900   -0.5320   22.2520 C   0  0  0  0  0  0  0  0  0  0  0  0
    7.9930   -0.7390   21.7570 N   0  0  0  0  0  0  0  0  0  0  0  0
    7.6210   -0.3530   20.5040 C   0  0  0  0  0  0  0  0  0  0  0  0
    8.4030   -0.0730   19.6170 O   0  0  0  0  0  0  0  0  0  0  0  0
    6.2660   -0.2330   20.3750 N   0  0  0  0  0  0  0  0  0  0  0  0
    5.6280    0.4470   19.3150 C   0  0  0  0  0  0  0  0  0  0  0  0
    4.6770    1.4320   19.6070 C   0  0  0  0  0  0  0  0  0  0  0  0
    4.1710    2.1830   18.5390 C   0  0  0  0  0  0  0  0  0  0  0  0
    4.6450    1.9460   17.2400 C   0  0  0  0  0  0  0  0  0  0  0  0
    5.5340    0.9710   16.9480 N   0  0  0  0  0  0  0  0  0  0  0  0
    6.0170    0.2470   17.9750 C   0  0  0  0  0  0  0  0  0  0  0  0
    9.5300    0.6050   23.0290 C   0  0  0  0  0  0  0  0  0  0  0  0
  1  2  1  0
  2  3  2  0
  2  7  1  0
  3  4  1  0
  4  5  2  0
  5  6  1  0
  6  7  2  0
  7  8  1  0
  8  9  1  0
  9 24  1  0
  9 10  2  0
 10 11  1  0
 11 12  2  0
 12 13  1  0
 13 14  1  0
 13 24  2  0
 14 15  1  0
 15 16  2  0
 15 17  1  0
 17 18  1  0
 18 19  2  0
 18 23  1  0
 19 20  1  0
 20 21  2  0
 21 22  1  0
 22 23  2  0
M  END
>  <original SMILES>  (749) 
Cc1nccnc1Sc1cccc(NC(=O)Nc2cccnc2)c1

>  <AutoDock Predicted Affinity>  (749) 
-6.178665

>  <ref_pdb>  (749) 
x0434_0

>  <ref_mols>  (749) 
x0434_0

>  <creator>  (749) 
Will Poole

>  <energy minimised>  (749) 
True

$$$$
WPC1089_minimised.pdb
     RDKit          3D

 23 25  0  0  0  0  0  0  0  0999 V2000
   13.5560    4.9270   22.4200 C   0  0  0  0  0  0  0  0  0  0  0  0
   12.3570    4.7190   23.3010 C   0  0  0  0  0  0  0  0  0  0  0  0
   11.6510    5.7620   23.8540 N   0  0  0  0  0  0  0  0  0  0  0  0
   10.6550    5.3240   24.5710 N   0  0  0  0  0  0  0  0  0  0  0  0
   10.4480    3.7130   24.6760 S   0  0  0  0  0  0  0  0  0  0  0  0
   11.8500    3.4980   23.6720 C   0  0  0  0  0  0  0  0  0  0  0  0
   12.6790    2.0010   23.2200 S   0  0  0  0  0  0  0  0  0  0  0  0
   11.2980    0.9630   23.6560 C   0  0  0  0  0  0  0  0  0  0  0  0
   11.3430    0.1920   24.8240 C   0  0  0  0  0  0  0  0  0  0  0  0
   10.2360   -0.5760   25.2120 C   0  0  0  0  0  0  0  0  0  0  0  0
    9.0970   -0.6170   24.3960 C   0  0  0  0  0  0  0  0  0  0  0  0
    9.0610    0.1150   23.2000 C   0  0  0  0  0  0  0  0  0  0  0  0
    7.8790    0.0680   22.4330 N   0  0  0  0  0  0  0  0  0  0  0  0
    7.7200    0.3090   21.0970 C   0  0  0  0  0  0  0  0  0  0  0  0
    8.6120    0.5280   20.3000 O   0  0  0  0  0  0  0  0  0  0  0  0
    6.3960    0.3010   20.7610 N   0  0  0  0  0  0  0  0  0  0  0  0
    5.8410    0.7980   19.5640 C   0  0  0  0  0  0  0  0  0  0  0  0
    4.8070    1.7370   19.6530 C   0  0  0  0  0  0  0  0  0  0  0  0
    4.3520    2.3150   18.4640 C   0  0  0  0  0  0  0  0  0  0  0  0
    4.9480    1.9560   17.2490 C   0  0  0  0  0  0  0  0  0  0  0  0
    5.9040    1.0050   17.1470 N   0  0  0  0  0  0  0  0  0  0  0  0
    6.3520    0.4550   18.2950 C   0  0  0  0  0  0  0  0  0  0  0  0
   10.1570    0.9210   22.8400 C   0  0  0  0  0  0  0  0  0  0  0  0
  1  2  1  0
  2  3  1  0
  2  6  2  0
  3  4  2  0
  4  5  1  0
  5  6  1  0
  6  7  1  0
  7  8  1  0
  8 23  1  0
  8  9  2  0
  9 10  1  0
 10 11  2  0
 11 12  1  0
 12 13  1  0
 12 23  2  0
 13 14  1  0
 14 15  2  0
 14 16  1  0
 16 17  1  0
 17 18  2  0
 17 22  1  0
 18 19  1  0
 19 20  2  0
 20 21  1  0
 21 22  2  0
M  END
>  <original SMILES>  (750) 
Cc1nnsc1Sc1cccc(NC(=O)Nc2cccnc2)c1

>  <AutoDock Predicted Affinity>  (750) 
-5.85563

>  <ref_pdb>  (750) 
x0434_0

>  <ref_mols>  (750) 
x0434_0

>  <creator>  (750) 
Will Poole

>  <energy minimised>  (750) 
True

$$$$
WPC1353_minimised.pdb
     RDKit          3D

 23 25  0  0  0  0  0  0  0  0999 V2000
    9.7390    5.5800   23.1560 C   0  0  0  0  0  0  0  0  0  0  0  0
   11.0910    5.6200   23.8060 C   0  0  0  0  0  0  0  0  0  0  0  0
   11.4010    6.2700   24.9020 N   0  0  0  0  0  0  0  0  0  0  0  0
   12.7800    6.0420   25.0390 O   0  0  0  0  0  0  0  0  0  0  0  0
   13.3030    5.2390   24.0100 N   0  0  0  0  0  0  0  0  0  0  0  0
   12.2500    4.9980   23.2710 C   0  0  0  0  0  0  0  0  0  0  0  0
   12.4390    4.0790   21.7980 S   0  0  0  0  0  0  0  0  0  0  0  0
   11.8120    2.6080   22.5890 C   0  0  0  0  0  0  0  0  0  0  0  0
   12.6310    1.8640   23.4460 C   0  0  0  0  0  0  0  0  0  0  0  0
   12.1220    0.7240   24.0900 C   0  0  0  0  0  0  0  0  0  0  0  0
   10.8140    0.2820   23.8220 C   0  0  0  0  0  0  0  0  0  0  0  0
   10.0200    0.9790   22.8990 C   0  0  0  0  0  0  0  0  0  0  0  0
    8.7340    0.5030   22.5480 N   0  0  0  0  0  0  0  0  0  0  0  0
    8.2480    0.4660   21.2670 C   0  0  0  0  0  0  0  0  0  0  0  0
    8.9350    0.7010   20.2930 O   0  0  0  0  0  0  0  0  0  0  0  0
    6.9080    0.2100   21.1590 N   0  0  0  0  0  0  0  0  0  0  0  0
    6.1570    0.5230   19.9970 C   0  0  0  0  0  0  0  0  0  0  0  0
    5.1230    1.4600   20.1070 C   0  0  0  0  0  0  0  0  0  0  0  0
    4.5160    1.9050   18.9270 C   0  0  0  0  0  0  0  0  0  0  0  0
    4.9600    1.4130   17.6920 C   0  0  0  0  0  0  0  0  0  0  0  0
    5.9170    0.4660   17.5740 N   0  0  0  0  0  0  0  0  0  0  0  0
    6.5170    0.0520   18.7120 C   0  0  0  0  0  0  0  0  0  0  0  0
   10.5170    2.1520   22.3050 C   0  0  0  0  0  0  0  0  0  0  0  0
  1  2  1  0
  2  3  2  0
  2  6  1  0
  3  4  1  0
  4  5  1  0
  5  6  2  0
  6  7  1  0
  7  8  1  0
  8 23  1  0
  8  9  2  0
  9 10  1  0
 10 11  2  0
 11 12  1  0
 12 13  1  0
 12 23  2  0
 13 14  1  0
 14 15  2  0
 14 16  1  0
 16 17  1  0
 17 18  2  0
 17 22  1  0
 18 19  1  0
 19 20  2  0
 20 21  1  0
 21 22  2  0
M  END
>  <original SMILES>  (751) 
Cc1nonc1Sc1cccc(NC(=O)Nc2cccnc2)c1

>  <AutoDock Predicted Affinity>  (751) 
-5.94092

>  <ref_pdb>  (751) 
x0434_0

>  <ref_mols>  (751) 
x0434_0

>  <creator>  (751) 
Will Poole

>  <energy minimised>  (751) 
True

$$$$
WPC1467_minimised.pdb
     RDKit          3D

 24 26  0  0  0  0  0  0  0  0999 V2000
    9.6310    3.0520   22.3240 C   0  0  0  0  0  0  0  0  0  0  0  0
   10.8360    3.6800   22.8880 N   0  0  0  0  0  0  0  0  0  0  0  0
   11.8050    4.4090   22.2280 C   0  0  0  0  0  0  0  0  0  0  0  0
   12.7040    4.8320   23.1790 C   0  0  0  0  0  0  0  0  0  0  0  0
   12.3370    4.3870   24.4240 N   0  0  0  0  0  0  0  0  0  0  0  0
   11.2260    3.7250   24.1980 C   0  0  0  0  0  0  0  0  0  0  0  0
   10.4440    2.7250   25.4020 S   0  0  0  0  0  0  0  0  0  0  0  0
   11.4720    1.2010   25.3570 C   0  0  0  0  0  0  0  0  0  0  0  0
   11.2860    0.4260   24.0820 C   0  0  0  0  0  0  0  0  0  0  0  0
   12.3750    0.2070   23.2210 C   0  0  0  0  0  0  0  0  0  0  0  0
   12.1870   -0.5000   22.0270 C   0  0  0  0  0  0  0  0  0  0  0  0
   10.8950   -0.9090   21.6660 C   0  0  0  0  0  0  0  0  0  0  0  0
    9.8000   -0.6340   22.4960 C   0  0  0  0  0  0  0  0  0  0  0  0
    8.4820   -0.8130   22.0280 N   0  0  0  0  0  0  0  0  0  0  0  0
    7.9880   -0.1880   20.9140 C   0  0  0  0  0  0  0  0  0  0  0  0
    8.6630    0.4710   20.1480 O   0  0  0  0  0  0  0  0  0  0  0  0
    6.6420   -0.3390   20.7410 N   0  0  0  0  0  0  0  0  0  0  0  0
    5.9220    0.2650   19.6840 C   0  0  0  0  0  0  0  0  0  0  0  0
    4.9550    1.2390   19.9650 C   0  0  0  0  0  0  0  0  0  0  0  0
    4.3750    1.9100   18.8800 C   0  0  0  0  0  0  0  0  0  0  0  0
    4.7750    1.5920   17.5730 C   0  0  0  0  0  0  0  0  0  0  0  0
    5.6840    0.6310   17.2940 N   0  0  0  0  0  0  0  0  0  0  0  0
    6.2590    0.0040   18.3390 C   0  0  0  0  0  0  0  0  0  0  0  0
   10.0050   -0.0210   23.7330 C   0  0  0  0  0  0  0  0  0  0  0  0
  1  2  1  0
  2  3  1  0
  2  6  1  0
  3  4  2  0
  4  5  1  0
  5  6  2  0
  6  7  1  0
  7  8  1  0
  8  9  1  0
  9 24  1  0
  9 10  2  0
 10 11  1  0
 11 12  2  0
 12 13  1  0
 13 14  1  0
 13 24  2  0
 14 15  1  0
 15 16  2  0
 15 17  1  0
 17 18  1  0
 18 19  2  0
 18 23  1  0
 19 20  1  0
 20 21  2  0
 21 22  1  0
 22 23  2  0
M  END
>  <original SMILES>  (752) 
Cn1ccnc1SCc1cccc(NC(=O)Nc2cccnc2)c1

>  <AutoDock Predicted Affinity>  (752) 
-5.42327

>  <ref_pdb>  (752) 
x0434_0

>  <ref_mols>  (752) 
x0434_0

>  <creator>  (752) 
Will Poole

>  <energy minimised>  (752) 
True

$$$$
WPC1711_minimised.pdb
     RDKit          3D

 24 26  0  0  0  0  0  0  0  0999 V2000
   10.6360    2.9720   21.7100 C   0  0  0  0  0  0  0  0  0  0  0  0
   11.5870    3.7560   22.4950 N   0  0  0  0  0  0  0  0  0  0  0  0
   12.6340    4.4330   21.9610 N   0  0  0  0  0  0  0  0  0  0  0  0
   13.2400    5.0030   22.9720 N   0  0  0  0  0  0  0  0  0  0  0  0
   12.6370    4.7290   24.1750 N   0  0  0  0  0  0  0  0  0  0  0  0
   11.6070    4.0010   23.8330 C   0  0  0  0  0  0  0  0  0  0  0  0
   10.5340    3.1730   24.9480 S   0  0  0  0  0  0  0  0  0  0  0  0
   11.3960    1.5620   25.1900 C   0  0  0  0  0  0  0  0  0  0  0  0
   11.2510    0.6200   24.0250 C   0  0  0  0  0  0  0  0  0  0  0  0
   12.3790    0.2270   23.2810 C   0  0  0  0  0  0  0  0  0  0  0  0
   12.2270   -0.6390   22.1860 C   0  0  0  0  0  0  0  0  0  0  0  0
   10.9430   -1.0620   21.8130 C   0  0  0  0  0  0  0  0  0  0  0  0
    9.8190   -0.6330   22.5320 C   0  0  0  0  0  0  0  0  0  0  0  0
    8.5250   -0.8650   22.0360 N   0  0  0  0  0  0  0  0  0  0  0  0
    8.0420   -0.2650   20.9060 C   0  0  0  0  0  0  0  0  0  0  0  0
    8.7200    0.4080   20.1530 O   0  0  0  0  0  0  0  0  0  0  0  0
    6.7020   -0.4550   20.7210 N   0  0  0  0  0  0  0  0  0  0  0  0
    5.9600    0.1400   19.6760 C   0  0  0  0  0  0  0  0  0  0  0  0
    4.9530    1.0630   19.9820 C   0  0  0  0  0  0  0  0  0  0  0  0
    4.3250    1.7170   18.9140 C   0  0  0  0  0  0  0  0  0  0  0  0
    4.7220    1.4330   17.5980 C   0  0  0  0  0  0  0  0  0  0  0  0
    5.6720    0.5200   17.2950 N   0  0  0  0  0  0  0  0  0  0  0  0
    6.2910   -0.0910   18.3250 C   0  0  0  0  0  0  0  0  0  0  0  0
    9.9740    0.1760   23.6600 C   0  0  0  0  0  0  0  0  0  0  0  0
  1  2  1  0
  2  3  1  0
  2  6  1  0
  3  4  2  0
  4  5  1  0
  5  6  2  0
  6  7  1  0
  7  8  1  0
  8  9  1  0
  9 24  1  0
  9 10  2  0
 10 11  1  0
 11 12  2  0
 12 13  1  0
 13 14  1  0
 13 24  2  0
 14 15  1  0
 15 16  2  0
 15 17  1  0
 17 18  1  0
 18 19  2  0
 18 23  1  0
 19 20  1  0
 20 21  2  0
 21 22  1  0
 22 23  2  0
M  END
>  <original SMILES>  (753) 
Cn1nnnc1SCc1cccc(NC(=O)Nc2cccnc2)c1

>  <AutoDock Predicted Affinity>  (753) 
-5.74742

>  <ref_pdb>  (753) 
x0434_0

>  <ref_mols>  (753) 
x0434_0

>  <creator>  (753) 
Will Poole

>  <energy minimised>  (753) 
True

$$$$
WPC1464_minimised.pdb
     RDKit          3D

 22 23  0  0  0  0  0  0  0  0999 V2000
    8.1620    4.3110   22.6760 N   0  0  0  0  0  0  0  0  0  0  0  0
    9.2040    4.2990   23.1700 C   0  0  0  0  0  0  0  0  0  0  0  0
   10.4830    4.2520   23.8890 C   0  0  0  0  0  0  0  0  0  0  0  0
   11.6020    4.7040   23.0540 C   0  0  0  0  0  0  0  0  0  0  0  0
   12.5230    5.0810   22.4710 N   0  0  0  0  0  0  0  0  0  0  0  0
   10.7570    2.8740   24.5420 C   0  0  0  0  0  0  0  0  0  0  0  0
   10.7690    1.6800   23.6010 C   0  0  0  0  0  0  0  0  0  0  0  0
   11.9760    1.1490   23.1100 C   0  0  0  0  0  0  0  0  0  0  0  0
   11.9610    0.0370   22.2490 C   0  0  0  0  0  0  0  0  0  0  0  0
   10.7370   -0.5390   21.8690 C   0  0  0  0  0  0  0  0  0  0  0  0
    9.5350   -0.0090   22.3600 C   0  0  0  0  0  0  0  0  0  0  0  0
    8.2830   -0.4650   21.9080 N   0  0  0  0  0  0  0  0  0  0  0  0
    7.8420   -0.2590   20.6320 C   0  0  0  0  0  0  0  0  0  0  0  0
    8.5700   -0.0580   19.6820 O   0  0  0  0  0  0  0  0  0  0  0  0
    6.4800   -0.2080   20.5450 N   0  0  0  0  0  0  0  0  0  0  0  0
    5.7880    0.4040   19.4750 C   0  0  0  0  0  0  0  0  0  0  0  0
    4.8670    1.4200   19.7600 C   0  0  0  0  0  0  0  0  0  0  0  0
    4.3080    2.1140   18.6810 C   0  0  0  0  0  0  0  0  0  0  0  0
    4.7010    1.7950   17.3730 C   0  0  0  0  0  0  0  0  0  0  0  0
    5.5630    0.7920   17.0890 N   0  0  0  0  0  0  0  0  0  0  0  0
    6.1000    0.1230   18.1290 C   0  0  0  0  0  0  0  0  0  0  0  0
    9.5540    1.0800   23.2360 C   0  0  0  0  0  0  0  0  0  0  0  0
  1  2  3  0
  2  3  1  0
  3  4  1  0
  3  6  1  0
  4  5  3  0
  6  7  1  0
  7 22  2  0
  7  8  1  0
  8  9  2  0
  9 10  1  0
 10 11  2  0
 11 12  1  0
 11 22  1  0
 12 13  1  0
 13 14  2  0
 13 15  1  0
 15 16  1  0
 16 17  2  0
 16 21  1  0
 17 18  1  0
 18 19  2  0
 19 20  1  0
 20 21  2  0
M  END
>  <original SMILES>  (754) 
N#CC(C#N)Cc1cccc(NC(=O)Nc2cccnc2)c1

>  <AutoDock Predicted Affinity>  (754) 
-5.84777

>  <ref_pdb>  (754) 
x0434_0

>  <ref_mols>  (754) 
x0434_0

>  <creator>  (754) 
Will Poole

>  <energy minimised>  (754) 
True

$$$$
WPC1506_minimised.pdb
     RDKit          3D

 23 24  0  0  1  0  0  0  0  0999 V2000
   13.7200    4.9370   23.0100 N   0  0  0  0  0  0  0  0  0  0  0  0
   12.5870    4.7330   23.0710 C   0  0  0  0  0  0  0  0  0  0  0  0
   11.1620    4.4160   23.1600 C   0  0  1  0  0  0  0  0  0  0  0  0
   10.8450    3.2370   24.5340 S   0  0  0  0  0  0  0  0  0  0  0  0
   10.9040    1.6960   23.6590 C   0  0  0  0  0  0  0  0  0  0  0  0
   12.1170    1.1470   23.2100 C   0  0  0  0  0  0  0  0  0  0  0  0
   12.1040   -0.0050   22.4040 C   0  0  0  0  0  0  0  0  0  0  0  0
   10.8790   -0.5960   22.0420 C   0  0  0  0  0  0  0  0  0  0  0  0
    9.6730   -0.0410   22.5020 C   0  0  0  0  0  0  0  0  0  0  0  0
    8.4240   -0.5010   22.0430 N   0  0  0  0  0  0  0  0  0  0  0  0
    7.9410   -0.1850   20.8050 C   0  0  0  0  0  0  0  0  0  0  0  0
    8.6380    0.2150   19.8950 O   0  0  0  0  0  0  0  0  0  0  0  0
    6.5810   -0.2710   20.6960 N   0  0  0  0  0  0  0  0  0  0  0  0
    5.8590    0.3160   19.6310 C   0  0  0  0  0  0  0  0  0  0  0  0
    4.9170    1.3150   19.9110 C   0  0  0  0  0  0  0  0  0  0  0  0
    4.3540    2.0020   18.8270 C   0  0  0  0  0  0  0  0  0  0  0  0
    4.7510    1.6790   17.5210 C   0  0  0  0  0  0  0  0  0  0  0  0
    5.6300    0.6910   17.2420 N   0  0  0  0  0  0  0  0  0  0  0  0
    6.1790    0.0380   18.2850 C   0  0  0  0  0  0  0  0  0  0  0  0
    9.6900    1.0950   23.3170 C   0  0  0  0  0  0  0  0  0  0  0  0
   10.2840    5.6510   23.3230 C   0  0  0  0  0  0  0  0  0  0  0  0
    9.1910    5.7680   22.5200 N   0  0  0  0  0  0  0  0  0  0  0  0
   10.4910    6.5280   24.1280 O   0  0  0  0  0  0  0  0  0  0  0  0
  1  2  3  0
  3  2  1  1
  3 21  1  0
  3  4  1  0
  4  5  1  0
  5 20  2  0
  5  6  1  0
  6  7  2  0
  7  8  1  0
  8  9  2  0
  9 10  1  0
  9 20  1  0
 10 11  1  0
 11 12  2  0
 11 13  1  0
 13 14  1  0
 14 15  2  0
 14 19  1  0
 15 16  1  0
 16 17  2  0
 17 18  1  0
 18 19  2  0
 21 22  1  0
 21 23  2  0
M  END
>  <original SMILES>  (755) 
N#CC(Sc1cccc(NC(=O)Nc2cccnc2)c1)C(N)=O

>  <AutoDock Predicted Affinity>  (755) 
-5.831377

>  <ref_pdb>  (755) 
x0434_0

>  <ref_mols>  (755) 
x0434_0

>  <creator>  (755) 
Will Poole

>  <energy minimised>  (755) 
True

$$$$
WPC2618_minimised.pdb
     RDKit          3D

 21 22  0  0  0  0  0  0  0  0999 V2000
   14.2080    6.2950   21.3400 N   0  0  0  0  0  0  0  0  0  0  0  0
   13.7450    5.4700   22.0000 C   0  0  0  0  0  0  0  0  0  0  0  0
   13.1650    4.5070   22.8700 C   0  0  0  0  0  0  0  0  0  0  0  0
   11.8550    4.5140   23.1880 C   0  0  0  0  0  0  0  0  0  0  0  0
   11.1570    3.4080   24.3300 S   0  0  0  0  0  0  0  0  0  0  0  0
   11.1240    1.8330   23.5030 C   0  0  0  0  0  0  0  0  0  0  0  0
   12.2970    1.1310   23.1720 C   0  0  0  0  0  0  0  0  0  0  0  0
   12.2110   -0.0850   22.4700 C   0  0  0  0  0  0  0  0  0  0  0  0
   10.9540   -0.6110   22.1220 C   0  0  0  0  0  0  0  0  0  0  0  0
    9.7860    0.0790   22.4820 C   0  0  0  0  0  0  0  0  0  0  0  0
    8.5150   -0.3710   22.0760 N   0  0  0  0  0  0  0  0  0  0  0  0
    8.0130   -0.1340   20.8280 C   0  0  0  0  0  0  0  0  0  0  0  0
    8.6950    0.2220   19.8900 O   0  0  0  0  0  0  0  0  0  0  0  0
    6.6520   -0.2480   20.7410 N   0  0  0  0  0  0  0  0  0  0  0  0
    5.9060    0.3050   19.6730 C   0  0  0  0  0  0  0  0  0  0  0  0
    4.9510    1.2910   19.9500 C   0  0  0  0  0  0  0  0  0  0  0  0
    4.3720    1.9610   18.8640 C   0  0  0  0  0  0  0  0  0  0  0  0
    4.7670    1.6350   17.5580 C   0  0  0  0  0  0  0  0  0  0  0  0
    5.6500    0.6500   17.2810 N   0  0  0  0  0  0  0  0  0  0  0  0
    6.2180    0.0160   18.3270 C   0  0  0  0  0  0  0  0  0  0  0  0
    9.8750    1.2980   23.1670 C   0  0  0  0  0  0  0  0  0  0  0  0
  1  2  3  0
  2  3  1  0
  3  4  2  0
  4  5  1  0
  5  6  1  0
  6 21  2  0
  6  7  1  0
  7  8  2  0
  8  9  1  0
  9 10  2  0
 10 11  1  0
 10 21  1  0
 11 12  1  0
 12 13  2  0
 12 14  1  0
 14 15  1  0
 15 16  2  0
 15 20  1  0
 16 17  1  0
 17 18  2  0
 18 19  1  0
 19 20  2  0
M  END
>  <original SMILES>  (756) 
N#CC=CSc1cccc(NC(=O)Nc2cccnc2)c1

>  <AutoDock Predicted Affinity>  (756) 
-5.57902

>  <ref_pdb>  (756) 
x0434_0

>  <ref_mols>  (756) 
x0434_0

>  <creator>  (756) 
Will Poole

>  <energy minimised>  (756) 
True

$$$$
WPC1133_minimised.pdb
     RDKit          3D

 20 21  0  0  0  0  0  0  0  0999 V2000
   13.6170    5.6180   22.2980 N   0  0  0  0  0  0  0  0  0  0  0  0
   12.8090    4.8080   22.4390 C   0  0  0  0  0  0  0  0  0  0  0  0
   11.8060    3.7470   22.5750 C   0  0  0  0  0  0  0  0  0  0  0  0
   12.2940    2.5580   23.4330 C   0  0  0  0  0  0  0  0  0  0  0  0
   11.7570    1.2080   22.9810 C   0  0  0  0  0  0  0  0  0  0  0  0
   12.6500    0.1600   22.6900 C   0  0  0  0  0  0  0  0  0  0  0  0
   12.1680   -1.0850   22.2540 C   0  0  0  0  0  0  0  0  0  0  0  0
   10.7890   -1.2870   22.0980 C   0  0  0  0  0  0  0  0  0  0  0  0
    9.8980   -0.2420   22.3760 C   0  0  0  0  0  0  0  0  0  0  0  0
    8.5280   -0.3910   22.0880 N   0  0  0  0  0  0  0  0  0  0  0  0
    7.9870   -0.0440   20.8830 C   0  0  0  0  0  0  0  0  0  0  0  0
    8.6540    0.3380   19.9440 O   0  0  0  0  0  0  0  0  0  0  0  0
    6.6220   -0.1220   20.8230 N   0  0  0  0  0  0  0  0  0  0  0  0
    5.8640    0.3870   19.7410 C   0  0  0  0  0  0  0  0  0  0  0  0
    4.8860    1.3590   19.9860 C   0  0  0  0  0  0  0  0  0  0  0  0
    4.2910    1.9760   18.8780 C   0  0  0  0  0  0  0  0  0  0  0  0
    4.6900    1.6110   17.5840 C   0  0  0  0  0  0  0  0  0  0  0  0
    5.5910    0.6340   17.3360 N   0  0  0  0  0  0  0  0  0  0  0  0
    6.1750    0.0530   18.4040 C   0  0  0  0  0  0  0  0  0  0  0  0
   10.3770    0.9990   22.8210 C   0  0  0  0  0  0  0  0  0  0  0  0
  1  2  3  0
  2  3  1  0
  3  4  1  0
  4  5  1  0
  5 20  2  0
  5  6  1  0
  6  7  2  0
  7  8  1  0
  8  9  2  0
  9 10  1  0
  9 20  1  0
 10 11  1  0
 11 12  2  0
 11 13  1  0
 13 14  1  0
 14 15  2  0
 14 19  1  0
 15 16  1  0
 16 17  2  0
 17 18  1  0
 18 19  2  0
M  END
>  <original SMILES>  (757) 
N#CCCc1cccc(NC(=O)Nc2cccnc2)c1

>  <AutoDock Predicted Affinity>  (757) 
-5.78529

>  <ref_pdb>  (757) 
x0434_0

>  <ref_mols>  (757) 
x0434_0

>  <creator>  (757) 
Will Poole

>  <energy minimised>  (757) 
True

$$$$
WPC1628_minimised.pdb
     RDKit          3D

 19 20  0  0  0  0  0  0  0  0999 V2000
   13.1380    5.1300   23.4510 N   0  0  0  0  0  0  0  0  0  0  0  0
   12.1500    4.5370   23.4890 C   0  0  0  0  0  0  0  0  0  0  0  0
   10.8950    3.7870   23.6080 C   0  0  0  0  0  0  0  0  0  0  0  0
   10.9750    2.3190   23.1890 C   0  0  0  0  0  0  0  0  0  0  0  0
   12.1860    1.6040   23.0560 C   0  0  0  0  0  0  0  0  0  0  0  0
   12.1780    0.2740   22.6000 C   0  0  0  0  0  0  0  0  0  0  0  0
   10.9620   -0.3640   22.3000 C   0  0  0  0  0  0  0  0  0  0  0  0
    9.7570    0.3330   22.4660 C   0  0  0  0  0  0  0  0  0  0  0  0
    8.5200   -0.2310   22.0990 N   0  0  0  0  0  0  0  0  0  0  0  0
    8.0150   -0.1070   20.8370 C   0  0  0  0  0  0  0  0  0  0  0  0
    8.6980    0.1450   19.8660 O   0  0  0  0  0  0  0  0  0  0  0  0
    6.6510   -0.1910   20.7690 N   0  0  0  0  0  0  0  0  0  0  0  0
    5.9050    0.3370   19.6870 C   0  0  0  0  0  0  0  0  0  0  0  0
    4.9510    1.3300   19.9450 C   0  0  0  0  0  0  0  0  0  0  0  0
    4.3630    1.9710   18.8480 C   0  0  0  0  0  0  0  0  0  0  0  0
    4.7520    1.6160   17.5480 C   0  0  0  0  0  0  0  0  0  0  0  0
    5.6380    0.6280   17.2890 N   0  0  0  0  0  0  0  0  0  0  0  0
    6.2100    0.0160   18.3460 C   0  0  0  0  0  0  0  0  0  0  0  0
    9.7680    1.6630   22.9040 C   0  0  0  0  0  0  0  0  0  0  0  0
  1  2  3  0
  2  3  1  0
  3  4  1  0
  4 19  2  0
  4  5  1  0
  5  6  2  0
  6  7  1  0
  7  8  2  0
  8  9  1  0
  8 19  1  0
  9 10  1  0
 10 11  2  0
 10 12  1  0
 12 13  1  0
 13 14  2  0
 13 18  1  0
 14 15  1  0
 15 16  2  0
 16 17  1  0
 17 18  2  0
M  END
>  <original SMILES>  (758) 
N#CCc1cccc(NC(=O)Nc2cccnc2)c1

>  <AutoDock Predicted Affinity>  (758) 
-6.13436

>  <ref_pdb>  (758) 
x0434_0

>  <ref_mols>  (758) 
x0434_0

>  <creator>  (758) 
Will Poole

>  <energy minimised>  (758) 
True

$$$$
WPC2083_minimised.pdb
     RDKit          3D

 20 21  0  0  0  0  0  0  0  0999 V2000
   13.1270    5.2140   22.6680 N   0  0  0  0  0  0  0  0  0  0  0  0
   12.0480    4.9590   22.9850 C   0  0  0  0  0  0  0  0  0  0  0  0
   10.4980    4.6120   23.5610 S   0  0  0  0  0  0  0  0  0  0  0  0
   10.7990    3.0580   24.4960 C   0  0  0  0  0  0  0  0  0  0  0  0
   10.8310    1.8280   23.6100 C   0  0  0  0  0  0  0  0  0  0  0  0
   12.0450    1.2840   23.1510 C   0  0  0  0  0  0  0  0  0  0  0  0
   12.0390    0.1460   22.3240 C   0  0  0  0  0  0  0  0  0  0  0  0
   10.8190   -0.4450   21.9510 C   0  0  0  0  0  0  0  0  0  0  0  0
    9.6110    0.0970   22.4160 C   0  0  0  0  0  0  0  0  0  0  0  0
    8.3630   -0.3930   21.9860 N   0  0  0  0  0  0  0  0  0  0  0  0
    7.8990   -0.2210   20.7140 C   0  0  0  0  0  0  0  0  0  0  0  0
    8.6100    0.0120   19.7580 O   0  0  0  0  0  0  0  0  0  0  0  0
    6.5340   -0.2360   20.6300 N   0  0  0  0  0  0  0  0  0  0  0  0
    5.8180    0.3470   19.5590 C   0  0  0  0  0  0  0  0  0  0  0  0
    4.8810    1.3490   19.8390 C   0  0  0  0  0  0  0  0  0  0  0  0
    4.3150    2.0340   18.7560 C   0  0  0  0  0  0  0  0  0  0  0  0
    4.7130    1.7140   17.4500 C   0  0  0  0  0  0  0  0  0  0  0  0
    5.5860    0.7190   17.1700 N   0  0  0  0  0  0  0  0  0  0  0  0
    6.1320    0.0630   18.2130 C   0  0  0  0  0  0  0  0  0  0  0  0
    9.6200    1.2230   23.2470 C   0  0  0  0  0  0  0  0  0  0  0  0
  1  2  3  0
  2  3  1  0
  3  4  1  0
  4  5  1  0
  5 20  2  0
  5  6  1  0
  6  7  2  0
  7  8  1  0
  8  9  2  0
  9 10  1  0
  9 20  1  0
 10 11  1  0
 11 12  2  0
 11 13  1  0
 13 14  1  0
 14 15  2  0
 14 19  1  0
 15 16  1  0
 16 17  2  0
 17 18  1  0
 18 19  2  0
M  END
>  <original SMILES>  (759) 
N#CSCc1cccc(NC(=O)Nc2cccnc2)c1

>  <AutoDock Predicted Affinity>  (759) 
-5.62591

>  <ref_pdb>  (759) 
x0434_0

>  <ref_mols>  (759) 
x0434_0

>  <creator>  (759) 
Will Poole

>  <energy minimised>  (759) 
True

$$$$
WPC1570_minimised.pdb
     RDKit          3D

 19 20  0  0  0  0  0  0  0  0999 V2000
   14.0480    5.4380   21.7500 N   0  0  0  0  0  0  0  0  0  0  0  0
   13.1540    5.1570   22.4230 C   0  0  0  0  0  0  0  0  0  0  0  0
   11.8420    4.8530   23.4480 S   0  0  0  0  0  0  0  0  0  0  0  0
   11.5980    3.0900   23.2470 C   0  0  0  0  0  0  0  0  0  0  0  0
   12.6780    2.1900   23.2080 C   0  0  0  0  0  0  0  0  0  0  0  0
   12.4520    0.8150   23.0330 C   0  0  0  0  0  0  0  0  0  0  0  0
   11.1410    0.3330   22.8880 C   0  0  0  0  0  0  0  0  0  0  0  0
   10.0600    1.2270   22.9280 C   0  0  0  0  0  0  0  0  0  0  0  0
    8.7510    0.7780   22.6520 N   0  0  0  0  0  0  0  0  0  0  0  0
    8.2870    0.6030   21.3780 C   0  0  0  0  0  0  0  0  0  0  0  0
    9.0150    0.6200   20.4080 O   0  0  0  0  0  0  0  0  0  0  0  0
    6.9290    0.4670   21.2690 N   0  0  0  0  0  0  0  0  0  0  0  0
    6.2010    0.7070   20.0750 C   0  0  0  0  0  0  0  0  0  0  0  0
    5.1510    1.6310   20.1210 C   0  0  0  0  0  0  0  0  0  0  0  0
    4.5530    2.0020   18.9120 C   0  0  0  0  0  0  0  0  0  0  0  0
    5.0230    1.4550   17.7110 C   0  0  0  0  0  0  0  0  0  0  0  0
    5.9880    0.5100   17.6550 N   0  0  0  0  0  0  0  0  0  0  0  0
    6.5780    0.1650   18.8220 C   0  0  0  0  0  0  0  0  0  0  0  0
   10.2890    2.5990   23.1140 C   0  0  0  0  0  0  0  0  0  0  0  0
  1  2  3  0
  2  3  1  0
  3  4  1  0
  4 19  2  0
  4  5  1  0
  5  6  2  0
  6  7  1  0
  7  8  2  0
  8  9  1  0
  8 19  1  0
  9 10  1  0
 10 11  2  0
 10 12  1  0
 12 13  1  0
 13 14  2  0
 13 18  1  0
 14 15  1  0
 15 16  2  0
 16 17  1  0
 17 18  2  0
M  END
>  <original SMILES>  (760) 
N#CSc1cccc(NC(=O)Nc2cccnc2)c1

>  <AutoDock Predicted Affinity>  (760) 
-5.97161

>  <ref_pdb>  (760) 
x0434_0

>  <ref_mols>  (760) 
x0434_0

>  <creator>  (760) 
Will Poole

>  <energy minimised>  (760) 
True

$$$$
WPC1137_minimised.pdb
     RDKit          3D

 24 25  0  0  0  0  0  0  0  0999 V2000
   10.6100    3.2110   24.8730 N   0  0  0  0  0  0  0  0  0  0  0  0
   11.5830    2.7020   24.2330 C   0  0  0  0  0  0  0  0  0  0  0  0
   12.0280    1.2750   24.3950 C   0  0  0  0  0  0  0  0  0  0  0  0
   11.4940    0.3600   23.3180 C   0  0  0  0  0  0  0  0  0  0  0  0
   12.3700   -0.4040   22.5290 C   0  0  0  0  0  0  0  0  0  0  0  0
   11.8530   -1.3440   21.6280 C   0  0  0  0  0  0  0  0  0  0  0  0
   10.4640   -1.4820   21.4870 C   0  0  0  0  0  0  0  0  0  0  0  0
    9.5940   -0.6550   22.2060 C   0  0  0  0  0  0  0  0  0  0  0  0
    8.2190   -0.6390   21.9040 N   0  0  0  0  0  0  0  0  0  0  0  0
    7.7360   -0.2840   20.6760 C   0  0  0  0  0  0  0  0  0  0  0  0
    8.4420   -0.1080   19.7020 O   0  0  0  0  0  0  0  0  0  0  0  0
    6.3820   -0.1020   20.6410 N   0  0  0  0  0  0  0  0  0  0  0  0
    5.6870    0.4970   19.5630 C   0  0  0  0  0  0  0  0  0  0  0  0
    4.7610    1.5120   19.8300 C   0  0  0  0  0  0  0  0  0  0  0  0
    4.2070    2.1900   18.7360 C   0  0  0  0  0  0  0  0  0  0  0  0
    4.6090    1.8540   17.4350 C   0  0  0  0  0  0  0  0  0  0  0  0
    5.4620    0.8410   17.1680 N   0  0  0  0  0  0  0  0  0  0  0  0
    5.9920    0.1870   18.2190 C   0  0  0  0  0  0  0  0  0  0  0  0
   10.1060    0.2450   23.1430 C   0  0  0  0  0  0  0  0  0  0  0  0
   12.3940    3.5070   23.4750 N   0  0  0  0  0  0  0  0  0  0  0  0
   12.0900    4.9030   23.0600 C   0  0  0  0  0  0  0  0  0  0  0  0
   12.1060    5.9290   24.2100 C   0  0  0  0  0  0  0  0  0  0  0  0
   12.8030    6.9240   24.2280 O   0  0  0  0  0  0  0  0  0  0  0  0
   11.1100    5.7760   25.0940 O   0  0  0  0  0  0  0  0  0  0  0  0
  1  2  2  0
  2 20  1  0
  2  3  1  0
  3  4  1  0
  4 19  2  0
  4  5  1  0
  5  6  2  0
  6  7  1  0
  7  8  2  0
  8  9  1  0
  8 19  1  0
  9 10  1  0
 10 11  2  0
 10 12  1  0
 12 13  1  0
 13 14  2  0
 13 18  1  0
 14 15  1  0
 15 16  2  0
 16 17  1  0
 17 18  2  0
 20 21  1  0
 21 22  1  0
 22 23  2  0
 22 24  1  0
M  END
>  <original SMILES>  (761) 
N=C(Cc1cccc(NC(=O)Nc2cccnc2)c1)NCC(=O)O

>  <AutoDock Predicted Affinity>  (761) 
-5.23328

>  <ref_pdb>  (761) 
x0434_0

>  <ref_mols>  (761) 
x0434_0

>  <creator>  (761) 
Will Poole

>  <energy minimised>  (761) 
True

$$$$
WPC1952_minimised.pdb
     RDKit          3D

 21 22  0  0  0  0  0  0  0  0999 V2000
   10.3780    4.0320   24.5540 N   0  0  0  0  0  0  0  0  0  0  0  0
   11.2810    3.8050   23.6820 C   0  0  0  0  0  0  0  0  0  0  0  0
   12.1010    2.5270   23.6960 C   0  0  0  0  0  0  0  0  0  0  0  0
   11.5590    1.3250   22.9390 C   0  0  0  0  0  0  0  0  0  0  0  0
   12.4610    0.3370   22.5020 C   0  0  0  0  0  0  0  0  0  0  0  0
   11.9950   -0.8250   21.8680 C   0  0  0  0  0  0  0  0  0  0  0  0
   10.6180   -1.0020   21.6680 C   0  0  0  0  0  0  0  0  0  0  0  0
    9.7170   -0.0170   22.0960 C   0  0  0  0  0  0  0  0  0  0  0  0
    8.3430   -0.1370   21.8190 N   0  0  0  0  0  0  0  0  0  0  0  0
    7.8240   -0.0590   20.5590 C   0  0  0  0  0  0  0  0  0  0  0  0
    8.5010   -0.0950   19.5510 O   0  0  0  0  0  0  0  0  0  0  0  0
    6.4710    0.1340   20.5420 N   0  0  0  0  0  0  0  0  0  0  0  0
    5.7480    0.6580   19.4440 C   0  0  0  0  0  0  0  0  0  0  0  0
    4.8030    1.6610   19.6860 C   0  0  0  0  0  0  0  0  0  0  0  0
    4.2130    2.2810   18.5790 C   0  0  0  0  0  0  0  0  0  0  0  0
    4.6110    1.9160   17.2870 C   0  0  0  0  0  0  0  0  0  0  0  0
    5.4810    0.9100   17.0430 N   0  0  0  0  0  0  0  0  0  0  0  0
    6.0360    0.3000   18.1080 C   0  0  0  0  0  0  0  0  0  0  0  0
   10.1820    1.1390   22.7350 C   0  0  0  0  0  0  0  0  0  0  0  0
   11.6550    4.8190   22.8150 N   0  0  0  0  0  0  0  0  0  0  0  0
   13.0490    5.1600   22.7520 O   0  0  0  0  0  0  0  0  0  0  0  0
  1  2  2  0
  2 20  1  0
  2  3  1  0
  3  4  1  0
  4 19  2  0
  4  5  1  0
  5  6  2  0
  6  7  1  0
  7  8  2  0
  8  9  1  0
  8 19  1  0
  9 10  1  0
 10 11  2  0
 10 12  1  0
 12 13  1  0
 13 14  2  0
 13 18  1  0
 14 15  1  0
 15 16  2  0
 16 17  1  0
 17 18  2  0
 20 21  1  0
M  END
>  <original SMILES>  (762) 
N=C(Cc1cccc(NC(=O)Nc2cccnc2)c1)NO

>  <AutoDock Predicted Affinity>  (762) 
-5.810655

>  <ref_pdb>  (762) 
x0434_0

>  <ref_mols>  (762) 
x0434_0

>  <creator>  (762) 
Will Poole

>  <energy minimised>  (762) 
True

$$$$
WPC1068_minimised.pdb
     RDKit          3D

 21 22  0  0  0  0  0  0  0  0999 V2000
   13.4720    5.5230   21.5450 N   0  0  0  0  0  0  0  0  0  0  0  0
   13.1170    4.9700   22.6210 C   0  0  0  0  0  0  0  0  0  0  0  0
   14.1540    4.6910   23.4450 N   0  0  0  0  0  0  0  0  0  0  0  0
   11.7480    5.1310   23.2390 C   0  0  0  0  0  0  0  0  0  0  0  0
   11.3070    3.9950   24.1940 C   0  0  0  0  0  0  0  0  0  0  0  0
   11.1780    2.6150   23.5590 C   0  0  0  0  0  0  0  0  0  0  0  0
   12.3050    1.8010   23.3340 C   0  0  0  0  0  0  0  0  0  0  0  0
   12.1630    0.5260   22.7620 C   0  0  0  0  0  0  0  0  0  0  0  0
   10.8860    0.0440   22.4300 C   0  0  0  0  0  0  0  0  0  0  0  0
    9.7580    0.8400   22.6790 C   0  0  0  0  0  0  0  0  0  0  0  0
    8.4670    0.3960   22.3270 N   0  0  0  0  0  0  0  0  0  0  0  0
    8.0160    0.3190   21.0410 C   0  0  0  0  0  0  0  0  0  0  0  0
    8.7390    0.3860   20.0690 O   0  0  0  0  0  0  0  0  0  0  0  0
    6.6540    0.2330   20.9400 N   0  0  0  0  0  0  0  0  0  0  0  0
    5.9290    0.6130   19.7860 C   0  0  0  0  0  0  0  0  0  0  0  0
    4.9260    1.5790   19.9240 C   0  0  0  0  0  0  0  0  0  0  0  0
    4.3420    2.0820   18.7570 C   0  0  0  0  0  0  0  0  0  0  0  0
    4.7840    1.6230   17.5090 C   0  0  0  0  0  0  0  0  0  0  0  0
    5.7090    0.6470   17.3640 N   0  0  0  0  0  0  0  0  0  0  0  0
    6.2800    0.1700   18.4900 C   0  0  0  0  0  0  0  0  0  0  0  0
    9.9040    2.1200   23.2320 C   0  0  0  0  0  0  0  0  0  0  0  0
  1  2  2  0
  2  3  1  0
  2  4  1  0
  4  5  1  0
  5  6  1  0
  6 21  2  0
  6  7  1  0
  7  8  2  0
  8  9  1  0
  9 10  2  0
 10 11  1  0
 10 21  1  0
 11 12  1  0
 12 13  2  0
 12 14  1  0
 14 15  1  0
 15 16  2  0
 15 20  1  0
 16 17  1  0
 17 18  2  0
 18 19  1  0
 19 20  2  0
M  END
>  <original SMILES>  (763) 
N=C(N)CCc1cccc(NC(=O)Nc2cccnc2)c1

>  <AutoDock Predicted Affinity>  (763) 
-6.233193

>  <ref_pdb>  (763) 
x0434_0

>  <ref_mols>  (763) 
x0434_0

>  <creator>  (763) 
Will Poole

>  <energy minimised>  (763) 
True

$$$$
WPC1640_minimised.pdb
     RDKit          3D

 21 22  0  0  0  0  0  0  0  0999 V2000
   14.4450    4.6040   23.1170 N   0  0  0  0  0  0  0  0  0  0  0  0
   13.3200    5.1080   22.8510 C   0  0  0  0  0  0  0  0  0  0  0  0
   12.9030    5.0710   21.5630 N   0  0  0  0  0  0  0  0  0  0  0  0
   12.3700    5.5760   23.9220 C   0  0  0  0  0  0  0  0  0  0  0  0
   10.6460    4.9560   23.6090 S   0  0  0  0  0  0  0  0  0  0  0  0
   10.6540    3.1660   23.4330 C   0  0  0  0  0  0  0  0  0  0  0  0
   11.8070    2.3700   23.5570 C   0  0  0  0  0  0  0  0  0  0  0  0
   11.7530    0.9790   23.3830 C   0  0  0  0  0  0  0  0  0  0  0  0
   10.5340    0.3620   23.0700 C   0  0  0  0  0  0  0  0  0  0  0  0
    9.3820    1.1470   22.9310 C   0  0  0  0  0  0  0  0  0  0  0  0
    8.1810    0.5650   22.4900 N   0  0  0  0  0  0  0  0  0  0  0  0
    7.8590    0.4590   21.1690 C   0  0  0  0  0  0  0  0  0  0  0  0
    8.6580    0.6080   20.2660 O   0  0  0  0  0  0  0  0  0  0  0  0
    6.5260    0.2590   20.9510 N   0  0  0  0  0  0  0  0  0  0  0  0
    5.8720    0.6560   19.7620 C   0  0  0  0  0  0  0  0  0  0  0  0
    4.8610    1.6190   19.8580 C   0  0  0  0  0  0  0  0  0  0  0  0
    4.3600    2.1570   18.6690 C   0  0  0  0  0  0  0  0  0  0  0  0
    4.8870    1.7330   17.4420 C   0  0  0  0  0  0  0  0  0  0  0  0
    5.8210    0.7600   17.3340 N   0  0  0  0  0  0  0  0  0  0  0  0
    6.3150    0.2510   18.4840 C   0  0  0  0  0  0  0  0  0  0  0  0
    9.4410    2.5380   23.1140 C   0  0  0  0  0  0  0  0  0  0  0  0
  1  2  2  0
  2  3  1  0
  2  4  1  0
  4  5  1  0
  5  6  1  0
  6 21  2  0
  6  7  1  0
  7  8  2  0
  8  9  1  0
  9 10  2  0
 10 11  1  0
 10 21  1  0
 11 12  1  0
 12 13  2  0
 12 14  1  0
 14 15  1  0
 15 16  2  0
 15 20  1  0
 16 17  1  0
 17 18  2  0
 18 19  1  0
 19 20  2  0
M  END
>  <original SMILES>  (764) 
N=C(N)CSc1cccc(NC(=O)Nc2cccnc2)c1

>  <AutoDock Predicted Affinity>  (764) 
-5.769726

>  <ref_pdb>  (764) 
x0434_0

>  <ref_mols>  (764) 
x0434_0

>  <creator>  (764) 
Will Poole

>  <energy minimised>  (764) 
True

$$$$
WPC1800_minimised.pdb
     RDKit          3D

 20 21  0  0  0  0  0  0  0  0999 V2000
   10.7530    4.5390   23.4600 N   0  0  0  0  0  0  0  0  0  0  0  0
   11.7270    3.9130   22.9610 C   0  0  0  0  0  0  0  0  0  0  0  0
   12.5690    4.6720   22.2120 N   0  0  0  0  0  0  0  0  0  0  0  0
   12.2690    2.6160   23.5160 C   0  0  0  0  0  0  0  0  0  0  0  0
   11.7600    1.3460   22.8530 C   0  0  0  0  0  0  0  0  0  0  0  0
   12.6590    0.3390   22.4550 C   0  0  0  0  0  0  0  0  0  0  0  0
   12.1800   -0.8530   21.8860 C   0  0  0  0  0  0  0  0  0  0  0  0
   10.7990   -1.0430   21.7200 C   0  0  0  0  0  0  0  0  0  0  0  0
    9.9010   -0.0430   22.1190 C   0  0  0  0  0  0  0  0  0  0  0  0
    8.5190   -0.1860   21.8900 N   0  0  0  0  0  0  0  0  0  0  0  0
    7.9470   -0.0830   20.6540 C   0  0  0  0  0  0  0  0  0  0  0  0
    8.5850   -0.0580   19.6220 O   0  0  0  0  0  0  0  0  0  0  0  0
    6.5850    0.0540   20.6780 N   0  0  0  0  0  0  0  0  0  0  0  0
    5.8180    0.5550   19.5970 C   0  0  0  0  0  0  0  0  0  0  0  0
    4.8780    1.5630   19.8500 C   0  0  0  0  0  0  0  0  0  0  0  0
    4.2560    2.1660   18.7500 C   0  0  0  0  0  0  0  0  0  0  0  0
    4.6090    1.7690   17.4520 C   0  0  0  0  0  0  0  0  0  0  0  0
    5.4700    0.7580   17.2000 N   0  0  0  0  0  0  0  0  0  0  0  0
    6.0630    0.1740   18.2590 C   0  0  0  0  0  0  0  0  0  0  0  0
   10.3800    1.1460   22.6870 C   0  0  0  0  0  0  0  0  0  0  0  0
  1  2  2  0
  2  3  1  0
  2  4  1  0
  4  5  1  0
  5 20  2  0
  5  6  1  0
  6  7  2  0
  7  8  1  0
  8  9  2  0
  9 10  1  0
  9 20  1  0
 10 11  1  0
 11 12  2  0
 11 13  1  0
 13 14  1  0
 14 15  2  0
 14 19  1  0
 15 16  1  0
 16 17  2  0
 17 18  1  0
 18 19  2  0
M  END
>  <original SMILES>  (765) 
N=C(N)Cc1cccc(NC(=O)Nc2cccnc2)c1

>  <AutoDock Predicted Affinity>  (765) 
-5.60102

>  <ref_pdb>  (765) 
x0434_0

>  <ref_mols>  (765) 
x0434_0

>  <creator>  (765) 
Will Poole

>  <energy minimised>  (765) 
True

$$$$
WPC1662_minimised.pdb
     RDKit          3D

 24 25  0  0  0  0  0  0  0  0999 V2000
    6.9500    3.1730   22.5240 N   0  0  0  0  0  0  0  0  0  0  0  0
    7.6600    4.1770   22.3080 C   0  0  0  0  0  0  0  0  0  0  0  0
    7.3810    5.0340   21.3400 N   0  0  0  0  0  0  0  0  0  0  0  0
    8.8890    4.3590   22.8070 N   0  0  0  0  0  0  0  0  0  0  0  0
    9.6340    5.4960   22.9350 C   0  0  0  0  0  0  0  0  0  0  0  0
    9.1170    6.6450   22.9180 N   0  0  0  0  0  0  0  0  0  0  0  0
   11.3050    5.1390   23.1610 S   0  0  0  0  0  0  0  0  0  0  0  0
   11.2840    3.8140   24.4240 C   0  0  0  0  0  0  0  0  0  0  0  0
   11.3240    2.4240   23.8050 C   0  0  0  0  0  0  0  0  0  0  0  0
   12.5340    1.8830   23.3320 C   0  0  0  0  0  0  0  0  0  0  0  0
   12.5410    0.6530   22.6510 C   0  0  0  0  0  0  0  0  0  0  0  0
   11.3320   -0.0160   22.3990 C   0  0  0  0  0  0  0  0  0  0  0  0
   10.1270    0.5180   22.8820 C   0  0  0  0  0  0  0  0  0  0  0  0
    8.8860   -0.0010   22.4590 N   0  0  0  0  0  0  0  0  0  0  0  0
    8.3790    0.2570   21.2140 C   0  0  0  0  0  0  0  0  0  0  0  0
    9.0410    0.7290   20.3130 O   0  0  0  0  0  0  0  0  0  0  0  0
    7.0500   -0.0270   21.0570 N   0  0  0  0  0  0  0  0  0  0  0  0
    6.2860    0.4040   19.9420 C   0  0  0  0  0  0  0  0  0  0  0  0
    5.2470    1.3210   20.1390 C   0  0  0  0  0  0  0  0  0  0  0  0
    4.6360    1.8720   19.0050 C   0  0  0  0  0  0  0  0  0  0  0  0
    5.0740    1.4910   17.7290 C   0  0  0  0  0  0  0  0  0  0  0  0
    6.0360    0.5640   17.5280 N   0  0  0  0  0  0  0  0  0  0  0  0
    6.6460    0.0580   18.6220 C   0  0  0  0  0  0  0  0  0  0  0  0
   10.1330    1.7020   23.6290 C   0  0  0  0  0  0  0  0  0  0  0  0
  1  2  2  0
  2  3  1  0
  2  4  1  0
  4  5  1  0
  5  6  2  0
  5  7  1  0
  7  8  1  0
  8  9  1  0
  9 24  2  0
  9 10  1  0
 10 11  2  0
 11 12  1  0
 12 13  2  0
 13 14  1  0
 13 24  1  0
 14 15  1  0
 15 16  2  0
 15 17  1  0
 17 18  1  0
 18 19  2  0
 18 23  1  0
 19 20  1  0
 20 21  2  0
 21 22  1  0
 22 23  2  0
M  END
>  <original SMILES>  (766) 
N=C(N)NC(=N)SCc1cccc(NC(=O)Nc2cccnc2)c1

>  <AutoDock Predicted Affinity>  (766) 
-5.30333

>  <ref_pdb>  (766) 
x0434_0

>  <ref_mols>  (766) 
x0434_0

>  <creator>  (766) 
Will Poole

>  <energy minimised>  (766) 
True

$$$$
WPC1768_minimised.pdb
     RDKit          3D

 24 25  0  0  0  0  0  0  0  0999 V2000
    7.4140    3.2640   22.5210 N   0  0  0  0  0  0  0  0  0  0  0  0
    7.9050    4.3990   22.2750 C   0  0  0  0  0  0  0  0  0  0  0  0
    7.4820    5.1760   21.2860 N   0  0  0  0  0  0  0  0  0  0  0  0
    8.7400    5.1620   23.0420 N   0  0  0  0  0  0  0  0  0  0  0  0
    9.8200    4.7430   23.7460 C   0  0  0  0  0  0  0  0  0  0  0  0
   10.4930    5.5140   24.3990 O   0  0  0  0  0  0  0  0  0  0  0  0
   10.0580    3.4100   23.6470 N   0  0  0  0  0  0  0  0  0  0  0  0
   11.1450    2.6530   24.2500 C   0  0  0  0  0  0  0  0  0  0  0  0
   11.2620    1.3220   23.5320 C   0  0  0  0  0  0  0  0  0  0  0  0
   12.4920    0.8500   23.0380 C   0  0  0  0  0  0  0  0  0  0  0  0
   12.5280   -0.2980   22.2260 C   0  0  0  0  0  0  0  0  0  0  0  0
   11.3330   -0.9590   21.8850 C   0  0  0  0  0  0  0  0  0  0  0  0
   10.1110   -0.4930   22.3900 C   0  0  0  0  0  0  0  0  0  0  0  0
    8.8730   -0.9710   21.9170 N   0  0  0  0  0  0  0  0  0  0  0  0
    8.2930   -0.4580   20.7880 C   0  0  0  0  0  0  0  0  0  0  0  0
    8.9090    0.1330   19.9250 O   0  0  0  0  0  0  0  0  0  0  0  0
    6.9320   -0.5940   20.7250 N   0  0  0  0  0  0  0  0  0  0  0  0
    6.1480    0.0550   19.7390 C   0  0  0  0  0  0  0  0  0  0  0  0
    5.2340    1.0480   20.1150 C   0  0  0  0  0  0  0  0  0  0  0  0
    4.6180    1.7880   19.0940 C   0  0  0  0  0  0  0  0  0  0  0  0
    4.9390    1.5240   17.7530 C   0  0  0  0  0  0  0  0  0  0  0  0
    5.7930    0.5450   17.3840 N   0  0  0  0  0  0  0  0  0  0  0  0
    6.3960   -0.1560   18.3670 C   0  0  0  0  0  0  0  0  0  0  0  0
   10.0840    0.6140   23.2380 C   0  0  0  0  0  0  0  0  0  0  0  0
  1  2  2  0
  2  3  1  0
  2  4  1  0
  4  5  1  0
  5  6  2  0
  5  7  1  0
  7  8  1  0
  8  9  1  0
  9 24  2  0
  9 10  1  0
 10 11  2  0
 11 12  1  0
 12 13  2  0
 13 14  1  0
 13 24  1  0
 14 15  1  0
 15 16  2  0
 15 17  1  0
 17 18  1  0
 18 19  2  0
 18 23  1  0
 19 20  1  0
 20 21  2  0
 21 22  1  0
 22 23  2  0
M  END
>  <original SMILES>  (767) 
N=C(N)NC(=O)NCc1cccc(NC(=O)Nc2cccnc2)c1

>  <AutoDock Predicted Affinity>  (767) 
-6.61311

>  <ref_pdb>  (767) 
x0434_0

>  <ref_mols>  (767) 
x0434_0

>  <creator>  (767) 
Will Poole

>  <energy minimised>  (767) 
True

$$$$
WPC2567_minimised.pdb
     RDKit          3D

 22 23  0  0  0  0  0  0  0  0999 V2000
   12.9060    5.1630   21.5520 N   0  0  0  0  0  0  0  0  0  0  0  0
   12.9190    5.0660   22.7910 C   0  0  0  0  0  0  0  0  0  0  0  0
   14.0580    4.8170   23.4110 N   0  0  0  0  0  0  0  0  0  0  0  0
   11.9430    4.5570   23.5480 N   0  0  0  0  0  0  0  0  0  0  0  0
   11.1180    3.4210   23.1220 C   0  0  0  0  0  0  0  0  0  0  0  0
   11.5040    2.1700   23.9330 C   0  0  0  0  0  0  0  0  0  0  0  0
   11.0960    0.8870   23.2380 C   0  0  0  0  0  0  0  0  0  0  0  0
   12.0710   -0.0250   22.7970 C   0  0  0  0  0  0  0  0  0  0  0  0
   11.6940   -1.1860   22.1050 C   0  0  0  0  0  0  0  0  0  0  0  0
   10.3390   -1.4200   21.8250 C   0  0  0  0  0  0  0  0  0  0  0  0
    9.3690   -0.5030   22.2540 C   0  0  0  0  0  0  0  0  0  0  0  0
    8.0340   -0.6210   21.8330 N   0  0  0  0  0  0  0  0  0  0  0  0
    7.6380   -0.2810   20.5720 C   0  0  0  0  0  0  0  0  0  0  0  0
    8.4050   -0.1020   19.6470 O   0  0  0  0  0  0  0  0  0  0  0  0
    6.2890   -0.0940   20.4680 N   0  0  0  0  0  0  0  0  0  0  0  0
    5.6500    0.5450   19.3810 C   0  0  0  0  0  0  0  0  0  0  0  0
    4.7000    1.5410   19.6390 C   0  0  0  0  0  0  0  0  0  0  0  0
    4.1900    2.2520   18.5460 C   0  0  0  0  0  0  0  0  0  0  0  0
    4.6590    1.9700   17.2550 C   0  0  0  0  0  0  0  0  0  0  0  0
    5.5430    0.9810   16.9940 N   0  0  0  0  0  0  0  0  0  0  0  0
    6.0280    0.2920   18.0450 C   0  0  0  0  0  0  0  0  0  0  0  0
    9.7420    0.6370   22.9740 C   0  0  0  0  0  0  0  0  0  0  0  0
  1  2  2  0
  2  3  1  0
  2  4  1  0
  4  5  1  0
  5  6  1  0
  6  7  1  0
  7 22  2  0
  7  8  1  0
  8  9  2  0
  9 10  1  0
 10 11  2  0
 11 12  1  0
 11 22  1  0
 12 13  1  0
 13 14  2  0
 13 15  1  0
 15 16  1  0
 16 17  2  0
 16 21  1  0
 17 18  1  0
 18 19  2  0
 19 20  1  0
 20 21  2  0
M  END
>  <original SMILES>  (768) 
N=C(N)NCCc1cccc(NC(=O)Nc2cccnc2)c1

>  <AutoDock Predicted Affinity>  (768) 
-6.578153

>  <ref_pdb>  (768) 
x0434_0

>  <ref_mols>  (768) 
x0434_0

>  <creator>  (768) 
Will Poole

>  <energy minimised>  (768) 
True

$$$$
WPC2124_minimised.pdb
     RDKit          3D

 24 25  0  0  0  0  0  0  0  0999 V2000
    7.3830    2.7830   23.2550 N   0  0  0  0  0  0  0  0  0  0  0  0
    8.4030    3.1660   22.6570 C   0  0  0  0  0  0  0  0  0  0  0  0
    8.6970    2.6210   21.4850 N   0  0  0  0  0  0  0  0  0  0  0  0
    9.0860    4.2680   22.8930 N   0  0  0  0  0  0  0  0  0  0  0  0
   10.4490    4.1590   23.7620 S   0  0  0  0  0  0  0  0  0  0  0  0
   11.4410    4.2130   22.7190 O   0  0  0  0  0  0  0  0  0  0  0  0
   10.3810    5.2380   24.7170 O   0  0  0  0  0  0  0  0  0  0  0  0
   10.5960    2.5950   24.6350 C   0  0  0  0  0  0  0  0  0  0  0  0
   10.7920    1.3570   23.7780 C   0  0  0  0  0  0  0  0  0  0  0  0
   12.0230    1.0900   23.1530 C   0  0  0  0  0  0  0  0  0  0  0  0
   12.1380    0.0120   22.2580 C   0  0  0  0  0  0  0  0  0  0  0  0
   11.0050   -0.7550   21.9410 C   0  0  0  0  0  0  0  0  0  0  0  0
    9.7790   -0.4850   22.5680 C   0  0  0  0  0  0  0  0  0  0  0  0
    8.5620   -0.9870   22.0640 N   0  0  0  0  0  0  0  0  0  0  0  0
    8.0720   -0.5600   20.8580 C   0  0  0  0  0  0  0  0  0  0  0  0
    8.7710   -0.0960   19.9800 O   0  0  0  0  0  0  0  0  0  0  0  0
    6.7090   -0.5840   20.7540 N   0  0  0  0  0  0  0  0  0  0  0  0
    6.0050    0.0970   19.7280 C   0  0  0  0  0  0  0  0  0  0  0  0
    5.1290    1.1400   20.0610 C   0  0  0  0  0  0  0  0  0  0  0  0
    4.5610    1.8790   19.0130 C   0  0  0  0  0  0  0  0  0  0  0  0
    4.8890    1.5640   17.6850 C   0  0  0  0  0  0  0  0  0  0  0  0
    5.7180    0.5490   17.3570 N   0  0  0  0  0  0  0  0  0  0  0  0
    6.2730   -0.1530   18.3660 C   0  0  0  0  0  0  0  0  0  0  0  0
    9.7000    0.5130   23.5430 C   0  0  0  0  0  0  0  0  0  0  0  0
  1  2  2  0
  2  3  1  0
  2  4  1  0
  4  5  1  0
  5  6  2  0
  5  7  2  0
  5  8  1  0
  8  9  1  0
  9 24  2  0
  9 10  1  0
 10 11  2  0
 11 12  1  0
 12 13  2  0
 13 14  1  0
 13 24  1  0
 14 15  1  0
 15 16  2  0
 15 17  1  0
 17 18  1  0
 18 19  2  0
 18 23  1  0
 19 20  1  0
 20 21  2  0
 21 22  1  0
 22 23  2  0
M  END
>  <original SMILES>  (769) 
N=C(N)NS(=O)(=O)Cc1cccc(NC(=O)Nc2cccnc2)c1

>  <AutoDock Predicted Affinity>  (769) 
-6.06362

>  <ref_pdb>  (769) 
x0434_0

>  <ref_mols>  (769) 
x0434_0

>  <creator>  (769) 
Will Poole

>  <energy minimised>  (769) 
True

$$$$
WPC1150_minimised.pdb
     RDKit          3D

 23 24  0  0  0  0  0  0  0  0999 V2000
   14.3290    6.7230   21.7300 N   0  0  0  0  0  0  0  0  0  0  0  0
   13.6650    5.6790   21.9730 C   0  0  0  0  0  0  0  0  0  0  0  0
   13.4390    4.8770   20.9150 N   0  0  0  0  0  0  0  0  0  0  0  0
   12.6300    5.2890   23.3070 S   0  0  0  0  0  0  0  0  0  0  0  0
   12.3650    3.4650   23.1700 C   0  0  0  0  0  0  0  0  0  0  0  0
   11.3810    2.9940   24.2570 C   0  0  0  0  0  0  0  0  0  0  0  0
   11.5730    1.5090   24.6230 C   0  0  0  0  0  0  0  0  0  0  0  0
   11.1940    0.5530   23.5170 C   0  0  0  0  0  0  0  0  0  0  0  0
   12.1820   -0.1430   22.7980 C   0  0  0  0  0  0  0  0  0  0  0  0
   11.8100   -1.0980   21.8400 C   0  0  0  0  0  0  0  0  0  0  0  0
   10.4500   -1.3220   21.5770 C   0  0  0  0  0  0  0  0  0  0  0  0
    9.4690   -0.5800   22.2470 C   0  0  0  0  0  0  0  0  0  0  0  0
    8.1210   -0.6560   21.8540 N   0  0  0  0  0  0  0  0  0  0  0  0
    7.6960   -0.3040   20.6050 C   0  0  0  0  0  0  0  0  0  0  0  0
    8.4430   -0.1060   19.6670 O   0  0  0  0  0  0  0  0  0  0  0  0
    6.3420   -0.1390   20.5230 N   0  0  0  0  0  0  0  0  0  0  0  0
    5.6830    0.4930   19.4430 C   0  0  0  0  0  0  0  0  0  0  0  0
    4.7460    1.4980   19.7100 C   0  0  0  0  0  0  0  0  0  0  0  0
    4.2300    2.2120   18.6210 C   0  0  0  0  0  0  0  0  0  0  0  0
    4.6830    1.9250   17.3260 C   0  0  0  0  0  0  0  0  0  0  0  0
    5.5500    0.9230   17.0560 N   0  0  0  0  0  0  0  0  0  0  0  0
    6.0390    0.2310   18.1020 C   0  0  0  0  0  0  0  0  0  0  0  0
    9.8380    0.3380   23.2340 C   0  0  0  0  0  0  0  0  0  0  0  0
  1  2  2  0
  2  3  1  0
  2  4  1  0
  4  5  1  0
  5  6  1  0
  6  7  1  0
  7  8  1  0
  8 23  2  0
  8  9  1  0
  9 10  2  0
 10 11  1  0
 11 12  2  0
 12 13  1  0
 12 23  1  0
 13 14  1  0
 14 15  2  0
 14 16  1  0
 16 17  1  0
 17 18  2  0
 17 22  1  0
 18 19  1  0
 19 20  2  0
 20 21  1  0
 21 22  2  0
M  END
>  <original SMILES>  (770) 
N=C(N)SCCCc1cccc(NC(=O)Nc2cccnc2)c1

>  <AutoDock Predicted Affinity>  (770) 
-5.686195

>  <ref_pdb>  (770) 
x0434_0

>  <ref_mols>  (770) 
x0434_0

>  <creator>  (770) 
Will Poole

>  <energy minimised>  (770) 
True

$$$$
WPC2035_minimised.pdb
     RDKit          3D

 22 23  0  0  0  0  0  0  0  0999 V2000
   10.9540    5.4000   25.2720 N   0  0  0  0  0  0  0  0  0  0  0  0
   11.9710    5.8790   24.7100 C   0  0  0  0  0  0  0  0  0  0  0  0
   12.5880    6.9210   25.3070 N   0  0  0  0  0  0  0  0  0  0  0  0
   12.8470    5.3720   23.3190 S   0  0  0  0  0  0  0  0  0  0  0  0
   11.8710    3.9170   22.7460 C   0  0  0  0  0  0  0  0  0  0  0  0
   12.2600    2.6510   23.5330 C   0  0  0  0  0  0  0  0  0  0  0  0
   11.7370    1.3590   22.9280 C   0  0  0  0  0  0  0  0  0  0  0  0
   12.6320    0.3530   22.5180 C   0  0  0  0  0  0  0  0  0  0  0  0
   12.1500   -0.8340   21.9430 C   0  0  0  0  0  0  0  0  0  0  0  0
   10.7680   -1.0200   21.7820 C   0  0  0  0  0  0  0  0  0  0  0  0
    9.8740   -0.0240   22.1990 C   0  0  0  0  0  0  0  0  0  0  0  0
    8.4940   -0.1590   21.9540 N   0  0  0  0  0  0  0  0  0  0  0  0
    7.9410   -0.0540   20.7100 C   0  0  0  0  0  0  0  0  0  0  0  0
    8.5980   -0.0100   19.6900 O   0  0  0  0  0  0  0  0  0  0  0  0
    6.5780    0.0620   20.7120 N   0  0  0  0  0  0  0  0  0  0  0  0
    5.8220    0.5530   19.6190 C   0  0  0  0  0  0  0  0  0  0  0  0
    4.8770    1.5580   19.8560 C   0  0  0  0  0  0  0  0  0  0  0  0
    4.2670    2.1530   18.7450 C   0  0  0  0  0  0  0  0  0  0  0  0
    4.6350    1.7500   17.4540 C   0  0  0  0  0  0  0  0  0  0  0  0
    5.5010    0.7390   17.2160 N   0  0  0  0  0  0  0  0  0  0  0  0
    6.0860    0.1640   18.2870 C   0  0  0  0  0  0  0  0  0  0  0  0
   10.3550    1.1600   22.7750 C   0  0  0  0  0  0  0  0  0  0  0  0
  1  2  2  0
  2  3  1  0
  2  4  1  0
  4  5  1  0
  5  6  1  0
  6  7  1  0
  7 22  2  0
  7  8  1  0
  8  9  2  0
  9 10  1  0
 10 11  2  0
 11 12  1  0
 11 22  1  0
 12 13  1  0
 13 14  2  0
 13 15  1  0
 15 16  1  0
 16 17  2  0
 16 21  1  0
 17 18  1  0
 18 19  2  0
 19 20  1  0
 20 21  2  0
M  END
>  <original SMILES>  (771) 
N=C(N)SCCc1cccc(NC(=O)Nc2cccnc2)c1

>  <AutoDock Predicted Affinity>  (771) 
-5.57653

>  <ref_pdb>  (771) 
x0434_0

>  <ref_mols>  (771) 
x0434_0

>  <creator>  (771) 
Will Poole

>  <energy minimised>  (771) 
True

$$$$
WPC1593_minimised.pdb
     RDKit          3D

 21 22  0  0  0  0  0  0  0  0999 V2000
   13.2240    5.0210   24.0160 N   0  0  0  0  0  0  0  0  0  0  0  0
   12.2090    4.9850   23.2720 C   0  0  0  0  0  0  0  0  0  0  0  0
   12.4150    5.1110   21.9480 N   0  0  0  0  0  0  0  0  0  0  0  0
   10.5680    4.5880   23.6170 S   0  0  0  0  0  0  0  0  0  0  0  0
   10.8250    3.0650   24.6090 C   0  0  0  0  0  0  0  0  0  0  0  0
   10.8920    1.8330   23.7300 C   0  0  0  0  0  0  0  0  0  0  0  0
   12.1200    1.3120   23.2800 C   0  0  0  0  0  0  0  0  0  0  0  0
   12.1400    0.1830   22.4420 C   0  0  0  0  0  0  0  0  0  0  0  0
   10.9330   -0.4250   22.0510 C   0  0  0  0  0  0  0  0  0  0  0  0
    9.7110    0.0970   22.5040 C   0  0  0  0  0  0  0  0  0  0  0  0
    8.4760   -0.4100   22.0530 N   0  0  0  0  0  0  0  0  0  0  0  0
    7.9910   -0.1640   20.8000 C   0  0  0  0  0  0  0  0  0  0  0  0
    8.6770    0.1990   19.8680 O   0  0  0  0  0  0  0  0  0  0  0  0
    6.6300   -0.2660   20.7050 N   0  0  0  0  0  0  0  0  0  0  0  0
    5.8960    0.3070   19.6390 C   0  0  0  0  0  0  0  0  0  0  0  0
    4.9590    1.3100   19.9190 C   0  0  0  0  0  0  0  0  0  0  0  0
    4.3870    1.9880   18.8340 C   0  0  0  0  0  0  0  0  0  0  0  0
    4.7750    1.6570   17.5270 C   0  0  0  0  0  0  0  0  0  0  0  0
    5.6480    0.6620   17.2490 N   0  0  0  0  0  0  0  0  0  0  0  0
    6.2050    0.0160   18.2940 C   0  0  0  0  0  0  0  0  0  0  0  0
    9.6950    1.2180   23.3410 C   0  0  0  0  0  0  0  0  0  0  0  0
  1  2  2  0
  2  3  1  0
  2  4  1  0
  4  5  1  0
  5  6  1  0
  6 21  2  0
  6  7  1  0
  7  8  2  0
  8  9  1  0
  9 10  2  0
 10 11  1  0
 10 21  1  0
 11 12  1  0
 12 13  2  0
 12 14  1  0
 14 15  1  0
 15 16  2  0
 15 20  1  0
 16 17  1  0
 17 18  2  0
 18 19  1  0
 19 20  2  0
M  END
>  <original SMILES>  (772) 
N=C(N)SCc1cccc(NC(=O)Nc2cccnc2)c1

>  <AutoDock Predicted Affinity>  (772) 
-5.825017

>  <ref_pdb>  (772) 
x0434_0

>  <ref_mols>  (772) 
x0434_0

>  <creator>  (772) 
Will Poole

>  <energy minimised>  (772) 
True

$$$$
WPC2647_minimised.pdb
     RDKit          3D

 20 21  0  0  0  0  0  0  0  0999 V2000
   12.5840    6.5360   25.4000 N   0  0  0  0  0  0  0  0  0  0  0  0
   12.2620    5.7680   24.4500 C   0  0  0  0  0  0  0  0  0  0  0  0
   13.2120    5.5710   23.5140 N   0  0  0  0  0  0  0  0  0  0  0  0
   10.7160    5.1060   24.0250 S   0  0  0  0  0  0  0  0  0  0  0  0
   10.8420    3.3700   23.5610 C   0  0  0  0  0  0  0  0  0  0  0  0
   12.0530    2.6630   23.4100 C   0  0  0  0  0  0  0  0  0  0  0  0
   12.0510    1.3020   23.0650 C   0  0  0  0  0  0  0  0  0  0  0  0
   10.8370    0.6380   22.8320 C   0  0  0  0  0  0  0  0  0  0  0  0
    9.6290    1.3390   22.9560 C   0  0  0  0  0  0  0  0  0  0  0  0
    8.4080    0.7310   22.5940 N   0  0  0  0  0  0  0  0  0  0  0  0
    8.0400    0.5380   21.2910 C   0  0  0  0  0  0  0  0  0  0  0  0
    8.8160    0.6050   20.3600 O   0  0  0  0  0  0  0  0  0  0  0  0
    6.6970    0.3510   21.1190 N   0  0  0  0  0  0  0  0  0  0  0  0
    6.0160    0.6760   19.9210 C   0  0  0  0  0  0  0  0  0  0  0  0
    4.9940    1.6310   19.9890 C   0  0  0  0  0  0  0  0  0  0  0  0
    4.4540    2.0950   18.7850 C   0  0  0  0  0  0  0  0  0  0  0  0
    4.9510    1.6070   17.5700 C   0  0  0  0  0  0  0  0  0  0  0  0
    5.8940    0.6400   17.4900 N   0  0  0  0  0  0  0  0  0  0  0  0
    6.4280    0.2050   18.6530 C   0  0  0  0  0  0  0  0  0  0  0  0
    9.6350    2.6940   23.3240 C   0  0  0  0  0  0  0  0  0  0  0  0
  1  2  2  0
  2  3  1  0
  2  4  1  0
  4  5  1  0
  5 20  2  0
  5  6  1  0
  6  7  2  0
  7  8  1  0
  8  9  2  0
  9 10  1  0
  9 20  1  0
 10 11  1  0
 11 12  2  0
 11 13  1  0
 13 14  1  0
 14 15  2  0
 14 19  1  0
 15 16  1  0
 16 17  2  0
 17 18  1  0
 18 19  2  0
M  END
>  <original SMILES>  (773) 
N=C(N)Sc1cccc(NC(=O)Nc2cccnc2)c1

>  <AutoDock Predicted Affinity>  (773) 
-6.23702

>  <ref_pdb>  (773) 
x0434_0

>  <ref_mols>  (773) 
x0434_0

>  <creator>  (773) 
Will Poole

>  <energy minimised>  (773) 
True

$$$$
WPC2358_minimised.pdb
     RDKit          3D

 22 23  0  0  0  0  0  0  0  0999 V2000
   13.7920    5.3400   21.7360 N   0  0  0  0  0  0  0  0  0  0  0  0
   12.4210    5.1390   22.1480 N   0  0  0  0  0  0  0  0  0  0  0  0
   12.0420    5.0990   23.4750 C   0  0  0  0  0  0  0  0  0  0  0  0
   12.9030    5.3920   24.3570 N   0  0  0  0  0  0  0  0  0  0  0  0
   10.4210    4.5290   23.6610 S   0  0  0  0  0  0  0  0  0  0  0  0
   10.7470    3.0000   24.6270 C   0  0  0  0  0  0  0  0  0  0  0  0
   10.8050    1.7740   23.7380 C   0  0  0  0  0  0  0  0  0  0  0  0
   12.0290    1.2510   23.2830 C   0  0  0  0  0  0  0  0  0  0  0  0
   12.0440    0.1300   22.4340 C   0  0  0  0  0  0  0  0  0  0  0  0
   10.8340   -0.4630   22.0310 C   0  0  0  0  0  0  0  0  0  0  0  0
    9.6150    0.0610   22.4890 C   0  0  0  0  0  0  0  0  0  0  0  0
    8.3780   -0.4270   22.0250 N   0  0  0  0  0  0  0  0  0  0  0  0
    7.9200   -0.2010   20.7600 C   0  0  0  0  0  0  0  0  0  0  0  0
    8.6360    0.1020   19.8270 O   0  0  0  0  0  0  0  0  0  0  0  0
    6.5580   -0.2580   20.6530 N   0  0  0  0  0  0  0  0  0  0  0  0
    5.8390    0.3280   19.5850 C   0  0  0  0  0  0  0  0  0  0  0  0
    4.8830    1.3110   19.8680 C   0  0  0  0  0  0  0  0  0  0  0  0
    4.3220    2.0050   18.7880 C   0  0  0  0  0  0  0  0  0  0  0  0
    4.7370    1.7060   17.4820 C   0  0  0  0  0  0  0  0  0  0  0  0
    5.6250    0.7270   17.1990 N   0  0  0  0  0  0  0  0  0  0  0  0
    6.1730    0.0680   18.2390 C   0  0  0  0  0  0  0  0  0  0  0  0
    9.6040    1.1700   23.3430 C   0  0  0  0  0  0  0  0  0  0  0  0
  1  2  1  0
  2  3  1  0
  3  4  2  0
  3  5  1  0
  5  6  1  0
  6  7  1  0
  7 22  2  0
  7  8  1  0
  8  9  2  0
  9 10  1  0
 10 11  2  0
 11 12  1  0
 11 22  1  0
 12 13  1  0
 13 14  2  0
 13 15  1  0
 15 16  1  0
 16 17  2  0
 16 21  1  0
 17 18  1  0
 18 19  2  0
 19 20  1  0
 20 21  2  0
M  END
>  <original SMILES>  (774) 
N=C(NN)SCc1cccc(NC(=O)Nc2cccnc2)c1

>  <AutoDock Predicted Affinity>  (774) 
-6.05701

>  <ref_pdb>  (774) 
x0434_0

>  <ref_mols>  (774) 
x0434_0

>  <creator>  (774) 
Will Poole

>  <energy minimised>  (774) 
True

$$$$
WPC2558_minimised.pdb
     RDKit          3D

 24 25  0  0  0  0  0  0  0  0999 V2000
   12.6350    6.4300   24.3020 N   0  0  0  0  0  0  0  0  0  0  0  0
   12.3940    5.1070   24.1200 C   0  0  0  0  0  0  0  0  0  0  0  0
   13.3130    4.4000   23.7850 O   0  0  0  0  0  0  0  0  0  0  0  0
   11.0050    4.6320   24.5010 C   0  0  0  0  0  0  0  0  0  0  0  0
   10.8670    3.1090   24.8190 C   0  0  0  0  0  0  0  0  0  0  0  0
   10.8570    2.0690   23.7070 C   0  0  0  0  0  0  0  0  0  0  0  0
   12.0560    1.5700   23.1640 C   0  0  0  0  0  0  0  0  0  0  0  0
   12.0330    0.4950   22.2600 C   0  0  0  0  0  0  0  0  0  0  0  0
   10.8100   -0.0830   21.8860 C   0  0  0  0  0  0  0  0  0  0  0  0
    9.6130    0.4090   22.4280 C   0  0  0  0  0  0  0  0  0  0  0  0
    8.3620   -0.0910   22.0150 N   0  0  0  0  0  0  0  0  0  0  0  0
    7.8900    0.0230   20.7390 C   0  0  0  0  0  0  0  0  0  0  0  0
    8.5870    0.2830   19.7800 O   0  0  0  0  0  0  0  0  0  0  0  0
    6.5290   -0.0800   20.6480 N   0  0  0  0  0  0  0  0  0  0  0  0
    5.7950    0.4540   19.5630 C   0  0  0  0  0  0  0  0  0  0  0  0
    4.8370    1.4430   19.8170 C   0  0  0  0  0  0  0  0  0  0  0  0
    4.2720    2.1000   18.7170 C   0  0  0  0  0  0  0  0  0  0  0  0
    4.6890    1.7640   17.4220 C   0  0  0  0  0  0  0  0  0  0  0  0
    5.5760    0.7760   17.1660 N   0  0  0  0  0  0  0  0  0  0  0  0
    6.1250    0.1490   18.2250 C   0  0  0  0  0  0  0  0  0  0  0  0
    9.6400    1.4650   23.3470 C   0  0  0  0  0  0  0  0  0  0  0  0
    9.9700    5.2880   23.6120 C   0  0  0  0  0  0  0  0  0  0  0  0
    9.2240    4.5150   22.7890 N   0  0  0  0  0  0  0  0  0  0  0  0
    9.7780    6.4850   23.6570 O   0  0  0  0  0  0  0  0  0  0  0  0
  1  2  1  0
  2  3  2  0
  2  4  1  0
  4 22  1  0
  4  5  1  0
  5  6  1  0
  6 21  2  0
  6  7  1  0
  7  8  2  0
  8  9  1  0
  9 10  2  0
 10 11  1  0
 10 21  1  0
 11 12  1  0
 12 13  2  0
 12 14  1  0
 14 15  1  0
 15 16  2  0
 15 20  1  0
 16 17  1  0
 17 18  2  0
 18 19  1  0
 19 20  2  0
 22 23  1  0
 22 24  2  0
M  END
>  <original SMILES>  (775) 
NC(=O)C(Cc1cccc(NC(=O)Nc2cccnc2)c1)C(N)=O

>  <AutoDock Predicted Affinity>  (775) 
-6.54001

>  <ref_pdb>  (775) 
x0434_0

>  <ref_mols>  (775) 
x0434_0

>  <creator>  (775) 
Will Poole

>  <energy minimised>  (775) 
True

$$$$
WPC2564_minimised.pdb
     RDKit          3D

 22 23  0  0  1  0  0  0  0  0999 V2000
   12.2790    4.8820   22.1380 N   0  0  0  0  0  0  0  0  0  0  0  0
   12.1090    4.8150   23.4880 C   0  0  0  0  0  0  0  0  0  0  0  0
   13.0560    5.0340   24.2150 O   0  0  0  0  0  0  0  0  0  0  0  0
   10.7070    4.4380   24.0340 C   0  0  1  0  0  0  0  0  0  0  0  0
    9.5330    4.5880   23.1260 N   0  0  0  0  0  0  0  0  0  0  0  0
   10.7570    3.0150   24.6320 C   0  0  0  0  0  0  0  0  0  0  0  0
   10.8290    1.8720   23.6350 C   0  0  0  0  0  0  0  0  0  0  0  0
   12.0620    1.3700   23.1780 C   0  0  0  0  0  0  0  0  0  0  0  0
   12.0940    0.2620   22.3120 C   0  0  0  0  0  0  0  0  0  0  0  0
   10.8950   -0.3480   21.9060 C   0  0  0  0  0  0  0  0  0  0  0  0
    9.6680    0.1510   22.3690 C   0  0  0  0  0  0  0  0  0  0  0  0
    8.4390   -0.3790   21.9310 N   0  0  0  0  0  0  0  0  0  0  0  0
    7.9430   -0.1650   20.6790 C   0  0  0  0  0  0  0  0  0  0  0  0
    8.6220    0.1710   19.7310 O   0  0  0  0  0  0  0  0  0  0  0  0
    6.5810   -0.2600   20.6050 N   0  0  0  0  0  0  0  0  0  0  0  0
    5.8360    0.3260   19.5560 C   0  0  0  0  0  0  0  0  0  0  0  0
    4.9040    1.3270   19.8580 C   0  0  0  0  0  0  0  0  0  0  0  0
    4.3260    2.0230   18.7880 C   0  0  0  0  0  0  0  0  0  0  0  0
    4.7070    1.7130   17.4740 C   0  0  0  0  0  0  0  0  0  0  0  0
    5.5750    0.7210   17.1750 N   0  0  0  0  0  0  0  0  0  0  0  0
    6.1340    0.0540   18.2040 C   0  0  0  0  0  0  0  0  0  0  0  0
    9.6380    1.2550   23.2280 C   0  0  0  0  0  0  0  0  0  0  0  0
  1  2  1  0
  2  3  2  0
  2  4  1  0
  4  5  1  6
  4  6  1  0
  6  7  1  0
  7 22  2  0
  7  8  1  0
  8  9  2  0
  9 10  1  0
 10 11  2  0
 11 12  1  0
 11 22  1  0
 12 13  1  0
 13 14  2  0
 13 15  1  0
 15 16  1  0
 16 17  2  0
 16 21  1  0
 17 18  1  0
 18 19  2  0
 19 20  1  0
 20 21  2  0
M  END
>  <original SMILES>  (776) 
NC(=O)C(N)Cc1cccc(NC(=O)Nc2cccnc2)c1

>  <AutoDock Predicted Affinity>  (776) 
-6.190547

>  <ref_pdb>  (776) 
x0434_0

>  <ref_mols>  (776) 
x0434_0

>  <creator>  (776) 
Will Poole

>  <energy minimised>  (776) 
True

$$$$
WPC1793_minimised.pdb
     RDKit          3D

 23 24  0  0  0  0  0  0  0  0999 V2000
   12.6200    6.5160   24.9820 N   0  0  0  0  0  0  0  0  0  0  0  0
   11.6390    5.8640   24.3020 C   0  0  0  0  0  0  0  0  0  0  0  0
   10.5010    5.9140   24.7070 O   0  0  0  0  0  0  0  0  0  0  0  0
   12.0360    5.0890   23.0570 C   0  0  0  0  0  0  0  0  0  0  0  0
   12.3200    3.5890   23.3100 C   0  0  0  0  0  0  0  0  0  0  0  0
   11.3230    2.9190   24.2860 C   0  0  0  0  0  0  0  0  0  0  0  0
   11.6630    1.4440   24.5800 C   0  0  0  0  0  0  0  0  0  0  0  0
   11.2750    0.5020   23.4650 C   0  0  0  0  0  0  0  0  0  0  0  0
   12.2510   -0.1600   22.7010 C   0  0  0  0  0  0  0  0  0  0  0  0
   11.8630   -1.1120   21.7470 C   0  0  0  0  0  0  0  0  0  0  0  0
   10.4990   -1.3590   21.5310 C   0  0  0  0  0  0  0  0  0  0  0  0
    9.5280   -0.6350   22.2310 C   0  0  0  0  0  0  0  0  0  0  0  0
    8.1710   -0.7120   21.8680 N   0  0  0  0  0  0  0  0  0  0  0  0
    7.7170   -0.3670   20.6260 C   0  0  0  0  0  0  0  0  0  0  0  0
    8.4380   -0.1950   19.6620 O   0  0  0  0  0  0  0  0  0  0  0  0
    6.3640   -0.1770   20.5750 N   0  0  0  0  0  0  0  0  0  0  0  0
    5.6860    0.4510   19.5040 C   0  0  0  0  0  0  0  0  0  0  0  0
    4.7660    1.4690   19.7830 C   0  0  0  0  0  0  0  0  0  0  0  0
    4.2230    2.1700   18.6990 C   0  0  0  0  0  0  0  0  0  0  0  0
    4.6280    1.8520   17.3940 C   0  0  0  0  0  0  0  0  0  0  0  0
    5.4800    0.8400   17.1150 N   0  0  0  0  0  0  0  0  0  0  0  0
    6.0000    0.1650   18.1580 C   0  0  0  0  0  0  0  0  0  0  0  0
    9.9140    0.2700   23.2210 C   0  0  0  0  0  0  0  0  0  0  0  0
  1  2  1  0
  2  3  2  0
  2  4  1  0
  4  5  1  0
  5  6  1  0
  6  7  1  0
  7  8  1  0
  8 23  2  0
  8  9  1  0
  9 10  2  0
 10 11  1  0
 11 12  2  0
 12 13  1  0
 12 23  1  0
 13 14  1  0
 14 15  2  0
 14 16  1  0
 16 17  1  0
 17 18  2  0
 17 22  1  0
 18 19  1  0
 19 20  2  0
 20 21  1  0
 21 22  2  0
M  END
>  <original SMILES>  (777) 
NC(=O)CCCCc1cccc(NC(=O)Nc2cccnc2)c1

>  <AutoDock Predicted Affinity>  (777) 
-5.455955

>  <ref_pdb>  (777) 
x0434_0

>  <ref_mols>  (777) 
x0434_0

>  <creator>  (777) 
Will Poole

>  <energy minimised>  (777) 
True

$$$$
WPC2569_minimised.pdb
     RDKit          3D

 22 23  0  0  0  0  0  0  0  0999 V2000
   12.5990    6.3840   24.2270 N   0  0  0  0  0  0  0  0  0  0  0  0
   11.4650    5.6770   23.9630 C   0  0  0  0  0  0  0  0  0  0  0  0
   10.3960    6.2310   24.0990 O   0  0  0  0  0  0  0  0  0  0  0  0
   11.6430    4.2090   23.5850 C   0  0  0  0  0  0  0  0  0  0  0  0
   10.7150    3.3050   24.4310 C   0  0  0  0  0  0  0  0  0  0  0  0
   11.2610    1.8760   24.6570 C   0  0  0  0  0  0  0  0  0  0  0  0
   11.0000    0.8890   23.5410 C   0  0  0  0  0  0  0  0  0  0  0  0
   12.0640    0.2320   22.8960 C   0  0  0  0  0  0  0  0  0  0  0  0
   11.8020   -0.7800   21.9600 C   0  0  0  0  0  0  0  0  0  0  0  0
   10.4740   -1.1110   21.6500 C   0  0  0  0  0  0  0  0  0  0  0  0
    9.4160   -0.4200   22.2550 C   0  0  0  0  0  0  0  0  0  0  0  0
    8.0880   -0.6140   21.8370 N   0  0  0  0  0  0  0  0  0  0  0  0
    7.6610   -0.3220   20.5750 C   0  0  0  0  0  0  0  0  0  0  0  0
    8.4020   -0.1600   19.6240 O   0  0  0  0  0  0  0  0  0  0  0  0
    6.3070   -0.1580   20.4960 N   0  0  0  0  0  0  0  0  0  0  0  0
    5.6450    0.4800   19.4230 C   0  0  0  0  0  0  0  0  0  0  0  0
    4.7180    1.4930   19.7010 C   0  0  0  0  0  0  0  0  0  0  0  0
    4.1910    2.2060   18.6180 C   0  0  0  0  0  0  0  0  0  0  0  0
    4.6200    1.9090   17.3160 C   0  0  0  0  0  0  0  0  0  0  0  0
    5.4830    0.9050   17.0380 N   0  0  0  0  0  0  0  0  0  0  0  0
    5.9850    0.2150   18.0800 C   0  0  0  0  0  0  0  0  0  0  0  0
    9.6770    0.5570   23.2170 C   0  0  0  0  0  0  0  0  0  0  0  0
  1  2  1  0
  2  3  2  0
  2  4  1  0
  4  5  1  0
  5  6  1  0
  6  7  1  0
  7 22  2  0
  7  8  1  0
  8  9  2  0
  9 10  1  0
 10 11  2  0
 11 12  1  0
 11 22  1  0
 12 13  1  0
 13 14  2  0
 13 15  1  0
 15 16  1  0
 16 17  2  0
 16 21  1  0
 17 18  1  0
 18 19  2  0
 19 20  1  0
 20 21  2  0
M  END
>  <original SMILES>  (778) 
NC(=O)CCCc1cccc(NC(=O)Nc2cccnc2)c1

>  <AutoDock Predicted Affinity>  (778) 
-5.883205

>  <ref_pdb>  (778) 
x0434_0

>  <ref_mols>  (778) 
x0434_0

>  <creator>  (778) 
Will Poole

>  <energy minimised>  (778) 
True

$$$$
WPC1897_minimised.pdb
     RDKit          3D

 21 22  0  0  0  0  0  0  0  0999 V2000
   12.4840    4.8860   21.9840 N   0  0  0  0  0  0  0  0  0  0  0  0
   12.2590    4.7830   23.3160 C   0  0  0  0  0  0  0  0  0  0  0  0
   13.1660    4.9590   24.1000 O   0  0  0  0  0  0  0  0  0  0  0  0
   10.8440    4.4260   23.7500 C   0  0  0  0  0  0  0  0  0  0  0  0
   10.8150    3.0790   24.5020 C   0  0  0  0  0  0  0  0  0  0  0  0
   10.8860    1.8610   23.6010 C   0  0  0  0  0  0  0  0  0  0  0  0
   12.1170    1.3280   23.1750 C   0  0  0  0  0  0  0  0  0  0  0  0
   12.1440    0.1850   22.3560 C   0  0  0  0  0  0  0  0  0  0  0  0
   10.9420   -0.4280   21.9630 C   0  0  0  0  0  0  0  0  0  0  0  0
    9.7170    0.1020   22.3960 C   0  0  0  0  0  0  0  0  0  0  0  0
    8.4850   -0.4220   21.9590 N   0  0  0  0  0  0  0  0  0  0  0  0
    7.9780   -0.1720   20.7170 C   0  0  0  0  0  0  0  0  0  0  0  0
    8.6490    0.2000   19.7770 O   0  0  0  0  0  0  0  0  0  0  0  0
    6.6170   -0.2790   20.6410 N   0  0  0  0  0  0  0  0  0  0  0  0
    5.8690    0.3050   19.5910 C   0  0  0  0  0  0  0  0  0  0  0  0
    4.9310    1.3010   19.8930 C   0  0  0  0  0  0  0  0  0  0  0  0
    4.3540    1.9970   18.8230 C   0  0  0  0  0  0  0  0  0  0  0  0
    4.7380    1.6910   17.5090 C   0  0  0  0  0  0  0  0  0  0  0  0
    5.6100    0.7020   17.2100 N   0  0  0  0  0  0  0  0  0  0  0  0
    6.1710    0.0380   18.2390 C   0  0  0  0  0  0  0  0  0  0  0  0
    9.6930    1.2390   23.2100 C   0  0  0  0  0  0  0  0  0  0  0  0
  1  2  1  0
  2  3  2  0
  2  4  1  0
  4  5  1  0
  5  6  1  0
  6 21  2  0
  6  7  1  0
  7  8  2  0
  8  9  1  0
  9 10  2  0
 10 11  1  0
 10 21  1  0
 11 12  1  0
 12 13  2  0
 12 14  1  0
 14 15  1  0
 15 16  2  0
 15 20  1  0
 16 17  1  0
 17 18  2  0
 18 19  1  0
 19 20  2  0
M  END
>  <original SMILES>  (779) 
NC(=O)CCc1cccc(NC(=O)Nc2cccnc2)c1

>  <AutoDock Predicted Affinity>  (779) 
-6.074565

>  <ref_pdb>  (779) 
x0434_0

>  <ref_mols>  (779) 
x0434_0

>  <creator>  (779) 
Will Poole

>  <energy minimised>  (779) 
True

$$$$
WPC2012_minimised.pdb
     RDKit          3D

 22 23  0  0  0  0  0  0  0  0999 V2000
   12.1890    6.1890   24.3640 N   0  0  0  0  0  0  0  0  0  0  0  0
   11.0820    5.5200   23.9220 C   0  0  0  0  0  0  0  0  0  0  0  0
    9.9920    6.0220   24.0970 O   0  0  0  0  0  0  0  0  0  0  0  0
   11.3340    4.1420   23.2770 C   0  0  0  0  0  0  0  0  0  0  0  0
   11.7810    3.0990   24.2470 N   0  0  0  0  0  0  0  0  0  0  0  0
   12.5750    1.9850   23.6990 C   0  0  0  0  0  0  0  0  0  0  0  0
   11.8280    0.9120   22.9300 C   0  0  0  0  0  0  0  0  0  0  0  0
   12.5950   -0.1010   22.3290 C   0  0  0  0  0  0  0  0  0  0  0  0
   11.9720   -1.1680   21.6700 C   0  0  0  0  0  0  0  0  0  0  0  0
   10.5750   -1.2110   21.5830 C   0  0  0  0  0  0  0  0  0  0  0  0
    9.8030   -0.1840   22.1430 C   0  0  0  0  0  0  0  0  0  0  0  0
    8.4120   -0.1510   21.9200 N   0  0  0  0  0  0  0  0  0  0  0  0
    7.8590   -0.0110   20.6780 C   0  0  0  0  0  0  0  0  0  0  0  0
    8.5110   -0.0250   19.6530 O   0  0  0  0  0  0  0  0  0  0  0  0
    6.5060    0.1910   20.6850 N   0  0  0  0  0  0  0  0  0  0  0  0
    5.7590    0.6760   19.5830 C   0  0  0  0  0  0  0  0  0  0  0  0
    4.8160    1.6860   19.8050 C   0  0  0  0  0  0  0  0  0  0  0  0
    4.2080    2.2670   18.6870 C   0  0  0  0  0  0  0  0  0  0  0  0
    4.5810    1.8520   17.4010 C   0  0  0  0  0  0  0  0  0  0  0  0
    5.4420    0.8340   17.1770 N   0  0  0  0  0  0  0  0  0  0  0  0
    6.0190    0.2670   18.2550 C   0  0  0  0  0  0  0  0  0  0  0  0
   10.4230    0.8650   22.8360 C   0  0  0  0  0  0  0  0  0  0  0  0
  1  2  1  0
  2  3  2  0
  2  4  1  0
  4  5  1  0
  5  6  1  0
  6  7  1  0
  7 22  2  0
  7  8  1  0
  8  9  2  0
  9 10  1  0
 10 11  2  0
 11 12  1  0
 11 22  1  0
 12 13  1  0
 13 14  2  0
 13 15  1  0
 15 16  1  0
 16 17  2  0
 16 21  1  0
 17 18  1  0
 18 19  2  0
 19 20  1  0
 20 21  2  0
M  END
>  <original SMILES>  (780) 
NC(=O)CNCc1cccc(NC(=O)Nc2cccnc2)c1

>  <AutoDock Predicted Affinity>  (780) 
-5.53052

>  <ref_pdb>  (780) 
x0434_0

>  <ref_mols>  (780) 
x0434_0

>  <creator>  (780) 
Will Poole

>  <energy minimised>  (780) 
True

$$$$
WPC1269_minimised.pdb
     RDKit          3D

 21 22  0  0  0  0  0  0  0  0999 V2000
   12.9730    4.9780   21.5820 N   0  0  0  0  0  0  0  0  0  0  0  0
   13.3950    5.0620   22.8690 C   0  0  0  0  0  0  0  0  0  0  0  0
   14.5330    4.7650   23.1530 O   0  0  0  0  0  0  0  0  0  0  0  0
   12.3800    5.4640   23.9220 C   0  0  0  0  0  0  0  0  0  0  0  0
   10.6900    4.7520   23.6630 S   0  0  0  0  0  0  0  0  0  0  0  0
   10.7890    2.9730   23.4220 C   0  0  0  0  0  0  0  0  0  0  0  0
   11.9850    2.2280   23.4290 C   0  0  0  0  0  0  0  0  0  0  0  0
   11.9700    0.8440   23.1910 C   0  0  0  0  0  0  0  0  0  0  0  0
   10.7580    0.1900   22.9230 C   0  0  0  0  0  0  0  0  0  0  0  0
    9.5680    0.9280   22.8970 C   0  0  0  0  0  0  0  0  0  0  0  0
    8.3630    0.3320   22.4810 N   0  0  0  0  0  0  0  0  0  0  0  0
    7.9780    0.3170   21.1720 C   0  0  0  0  0  0  0  0  0  0  0  0
    8.7350    0.5440   20.2500 O   0  0  0  0  0  0  0  0  0  0  0  0
    6.6390    0.1140   20.9860 N   0  0  0  0  0  0  0  0  0  0  0  0
    5.9560    0.5350   19.8210 C   0  0  0  0  0  0  0  0  0  0  0  0
    4.9580    1.5080   19.9510 C   0  0  0  0  0  0  0  0  0  0  0  0
    4.4310    2.0630   18.7790 C   0  0  0  0  0  0  0  0  0  0  0  0
    4.9190    1.6420   17.5350 C   0  0  0  0  0  0  0  0  0  0  0  0
    5.8410    0.6630   17.3950 N   0  0  0  0  0  0  0  0  0  0  0  0
    6.3620    0.1400   18.5260 C   0  0  0  0  0  0  0  0  0  0  0  0
    9.5850    2.3080   23.1510 C   0  0  0  0  0  0  0  0  0  0  0  0
  1  2  1  0
  2  3  2  0
  2  4  1  0
  4  5  1  0
  5  6  1  0
  6 21  2  0
  6  7  1  0
  7  8  2  0
  8  9  1  0
  9 10  2  0
 10 11  1  0
 10 21  1  0
 11 12  1  0
 12 13  2  0
 12 14  1  0
 14 15  1  0
 15 16  2  0
 15 20  1  0
 16 17  1  0
 17 18  2  0
 18 19  1  0
 19 20  2  0
M  END
>  <original SMILES>  (781) 
NC(=O)CSc1cccc(NC(=O)Nc2cccnc2)c1

>  <AutoDock Predicted Affinity>  (781) 
-5.604847

>  <ref_pdb>  (781) 
x0434_0

>  <ref_mols>  (781) 
x0434_0

>  <creator>  (781) 
Will Poole

>  <energy minimised>  (781) 
True

$$$$
WPC1620_minimised.pdb
     RDKit          3D

 20 21  0  0  0  0  0  0  0  0999 V2000
   11.5220    4.0120   22.6130 N   0  0  0  0  0  0  0  0  0  0  0  0
   10.9200    3.6280   23.7680 C   0  0  0  0  0  0  0  0  0  0  0  0
   10.0910    4.3370   24.2980 O   0  0  0  0  0  0  0  0  0  0  0  0
   11.3750    2.2900   24.3280 C   0  0  0  0  0  0  0  0  0  0  0  0
   11.0720    1.1150   23.4180 C   0  0  0  0  0  0  0  0  0  0  0  0
   12.1090    0.3290   22.8810 C   0  0  0  0  0  0  0  0  0  0  0  0
   11.8070   -0.7660   22.0550 C   0  0  0  0  0  0  0  0  0  0  0  0
   10.4680   -1.0630   21.7550 C   0  0  0  0  0  0  0  0  0  0  0  0
    9.4390   -0.2670   22.2760 C   0  0  0  0  0  0  0  0  0  0  0  0
    8.1050   -0.4570   21.8770 N   0  0  0  0  0  0  0  0  0  0  0  0
    7.6680   -0.1940   20.6110 C   0  0  0  0  0  0  0  0  0  0  0  0
    8.4060   -0.0330   19.6600 O   0  0  0  0  0  0  0  0  0  0  0  0
    6.3110   -0.0590   20.5280 N   0  0  0  0  0  0  0  0  0  0  0  0
    5.6390    0.5450   19.4420 C   0  0  0  0  0  0  0  0  0  0  0  0
    4.7020    1.5520   19.6990 C   0  0  0  0  0  0  0  0  0  0  0  0
    4.1700    2.2400   18.6010 C   0  0  0  0  0  0  0  0  0  0  0  0
    4.6040    1.9210   17.3070 C   0  0  0  0  0  0  0  0  0  0  0  0
    5.4750    0.9190   17.0480 N   0  0  0  0  0  0  0  0  0  0  0  0
    5.9830    0.2550   18.1040 C   0  0  0  0  0  0  0  0  0  0  0  0
    9.7390    0.8110   23.1150 C   0  0  0  0  0  0  0  0  0  0  0  0
  1  2  1  0
  2  3  2  0
  2  4  1  0
  4  5  1  0
  5 20  2  0
  5  6  1  0
  6  7  2  0
  7  8  1  0
  8  9  2  0
  9 10  1  0
  9 20  1  0
 10 11  1  0
 11 12  2  0
 11 13  1  0
 13 14  1  0
 14 15  2  0
 14 19  1  0
 15 16  1  0
 16 17  2  0
 17 18  1  0
 18 19  2  0
M  END
>  <original SMILES>  (782) 
NC(=O)Cc1cccc(NC(=O)Nc2cccnc2)c1

>  <AutoDock Predicted Affinity>  (782) 
-5.69956

>  <ref_pdb>  (782) 
x0434_0

>  <ref_mols>  (782) 
x0434_0

>  <creator>  (782) 
Will Poole

>  <energy minimised>  (782) 
True

$$$$
WPC2025_minimised.pdb
     RDKit          3D

 24 25  0  0  0  0  0  0  0  0999 V2000
    9.3770    4.7110   22.9150 N   0  0  0  0  0  0  0  0  0  0  0  0
    9.9970    5.8500   23.2840 C   0  0  0  0  0  0  0  0  0  0  0  0
    9.4270    6.9020   23.2470 O   0  0  0  0  0  0  0  0  0  0  0  0
   11.2660    5.8230   23.7410 N   0  0  0  0  0  0  0  0  0  0  0  0
   12.2750    4.9180   23.7940 C   0  0  0  0  0  0  0  0  0  0  0  0
   13.2860    5.2490   24.3650 O   0  0  0  0  0  0  0  0  0  0  0  0
   12.1500    3.5410   23.1850 C   0  0  0  0  0  0  0  0  0  0  0  0
   11.2700    2.4400   24.3590 S   0  0  0  0  0  0  0  0  0  0  0  0
   11.1530    0.9530   23.4160 C   0  0  0  0  0  0  0  0  0  0  0  0
   12.2940    0.3000   22.9250 C   0  0  0  0  0  0  0  0  0  0  0  0
   12.1470   -0.8460   22.1240 C   0  0  0  0  0  0  0  0  0  0  0  0
   10.8600   -1.3130   21.8060 C   0  0  0  0  0  0  0  0  0  0  0  0
    9.7280   -0.6430   22.2900 C   0  0  0  0  0  0  0  0  0  0  0  0
    8.4390   -0.9660   21.8350 N   0  0  0  0  0  0  0  0  0  0  0  0
    7.9440   -0.4620   20.6660 C   0  0  0  0  0  0  0  0  0  0  0  0
    8.6350    0.0590   19.8140 O   0  0  0  0  0  0  0  0  0  0  0  0
    6.5830   -0.5160   20.5670 N   0  0  0  0  0  0  0  0  0  0  0  0
    5.8610    0.1690   19.5610 C   0  0  0  0  0  0  0  0  0  0  0  0
    4.9390    1.1610   19.9170 C   0  0  0  0  0  0  0  0  0  0  0  0
    4.3810    1.9300   18.8850 C   0  0  0  0  0  0  0  0  0  0  0  0
    4.7670    1.6960   17.5560 C   0  0  0  0  0  0  0  0  0  0  0  0
    5.6320    0.7180   17.2060 N   0  0  0  0  0  0  0  0  0  0  0  0
    6.1730   -0.0150   18.1980 C   0  0  0  0  0  0  0  0  0  0  0  0
    9.8760    0.4800   23.1070 C   0  0  0  0  0  0  0  0  0  0  0  0
  1  2  1  0
  2  3  2  0
  2  4  1  0
  4  5  1  0
  5  6  2  0
  5  7  1  0
  7  8  1  0
  8  9  1  0
  9 24  2  0
  9 10  1  0
 10 11  2  0
 11 12  1  0
 12 13  2  0
 13 14  1  0
 13 24  1  0
 14 15  1  0
 15 16  2  0
 15 17  1  0
 17 18  1  0
 18 19  2  0
 18 23  1  0
 19 20  1  0
 20 21  2  0
 21 22  1  0
 22 23  2  0
M  END
>  <original SMILES>  (783) 
NC(=O)NC(=O)CSc1cccc(NC(=O)Nc2cccnc2)c1

>  <AutoDock Predicted Affinity>  (783) 
-5.882792

>  <ref_pdb>  (783) 
x0434_0

>  <ref_mols>  (783) 
x0434_0

>  <creator>  (783) 
Will Poole

>  <energy minimised>  (783) 
True

$$$$
WPC2074_minimised.pdb
     RDKit          3D

 23 24  0  0  0  0  0  0  0  0999 V2000
   12.7340    5.8230   23.7630 N   0  0  0  0  0  0  0  0  0  0  0  0
   13.2650    4.8230   23.0360 C   0  0  0  0  0  0  0  0  0  0  0  0
   14.2390    5.0100   22.3500 O   0  0  0  0  0  0  0  0  0  0  0  0
   12.7330    3.5920   23.2110 N   0  0  0  0  0  0  0  0  0  0  0  0
   11.7140    3.1680   24.0200 C   0  0  0  0  0  0  0  0  0  0  0  0
   10.9420    3.9380   24.5620 O   0  0  0  0  0  0  0  0  0  0  0  0
   11.7380    1.6850   24.3710 C   0  0  0  0  0  0  0  0  0  0  0  0
   11.2890    0.7330   23.2890 C   0  0  0  0  0  0  0  0  0  0  0  0
   12.2240   -0.0800   22.6230 C   0  0  0  0  0  0  0  0  0  0  0  0
   11.7820   -1.0830   21.7480 C   0  0  0  0  0  0  0  0  0  0  0  0
   10.4070   -1.2560   21.5280 C   0  0  0  0  0  0  0  0  0  0  0  0
    9.4810   -0.4120   22.1540 C   0  0  0  0  0  0  0  0  0  0  0  0
    8.1150   -0.4840   21.8320 N   0  0  0  0  0  0  0  0  0  0  0  0
    7.6350   -0.2160   20.5830 C   0  0  0  0  0  0  0  0  0  0  0  0
    8.3450   -0.0860   19.6050 O   0  0  0  0  0  0  0  0  0  0  0  0
    6.2790   -0.0530   20.5440 N   0  0  0  0  0  0  0  0  0  0  0  0
    5.5820    0.5420   19.4670 C   0  0  0  0  0  0  0  0  0  0  0  0
    4.6490    1.5490   19.7370 C   0  0  0  0  0  0  0  0  0  0  0  0
    4.1030    2.2390   18.6470 C   0  0  0  0  0  0  0  0  0  0  0  0
    4.5200    1.9190   17.3460 C   0  0  0  0  0  0  0  0  0  0  0  0
    5.3780    0.9100   17.0760 N   0  0  0  0  0  0  0  0  0  0  0  0
    5.8990    0.2450   18.1240 C   0  0  0  0  0  0  0  0  0  0  0  0
    9.9190    0.5730   23.0440 C   0  0  0  0  0  0  0  0  0  0  0  0
  1  2  1  0
  2  3  2  0
  2  4  1  0
  4  5  1  0
  5  6  2  0
  5  7  1  0
  7  8  1  0
  8 23  2  0
  8  9  1  0
  9 10  2  0
 10 11  1  0
 11 12  2  0
 12 13  1  0
 12 23  1  0
 13 14  1  0
 14 15  2  0
 14 16  1  0
 16 17  1  0
 17 18  2  0
 17 22  1  0
 18 19  1  0
 19 20  2  0
 20 21  1  0
 21 22  2  0
M  END
>  <original SMILES>  (784) 
NC(=O)NC(=O)Cc1cccc(NC(=O)Nc2cccnc2)c1

>  <AutoDock Predicted Affinity>  (784) 
-6.95237

>  <ref_pdb>  (784) 
x0434_0

>  <ref_mols>  (784) 
x0434_0

>  <creator>  (784) 
Will Poole

>  <energy minimised>  (784) 
True

$$$$
WPC1232_minimised.pdb
     RDKit          3D

 22 23  0  0  0  0  0  0  0  0999 V2000
   13.6970    5.4840   22.5330 N   0  0  0  0  0  0  0  0  0  0  0  0
   12.7230    5.2040   23.4240 C   0  0  0  0  0  0  0  0  0  0  0  0
   12.8430    5.4880   24.5930 O   0  0  0  0  0  0  0  0  0  0  0  0
   11.6330    4.5790   22.8940 N   0  0  0  0  0  0  0  0  0  0  0  0
   10.4720    4.1990   23.7030 C   0  0  0  0  0  0  0  0  0  0  0  0
   10.7240    2.8820   24.4610 C   0  0  0  0  0  0  0  0  0  0  0  0
   10.7660    1.6590   23.5660 C   0  0  0  0  0  0  0  0  0  0  0  0
   11.9850    1.1110   23.1260 C   0  0  0  0  0  0  0  0  0  0  0  0
   11.9890   -0.0200   22.2920 C   0  0  0  0  0  0  0  0  0  0  0  0
   10.7730   -0.6030   21.8950 C   0  0  0  0  0  0  0  0  0  0  0  0
    9.5600   -0.0540   22.3390 C   0  0  0  0  0  0  0  0  0  0  0  0
    8.3170   -0.5280   21.8810 N   0  0  0  0  0  0  0  0  0  0  0  0
    7.8620   -0.2800   20.6190 C   0  0  0  0  0  0  0  0  0  0  0  0
    8.5820    0.0040   19.6830 O   0  0  0  0  0  0  0  0  0  0  0  0
    6.4970   -0.2790   20.5280 N   0  0  0  0  0  0  0  0  0  0  0  0
    5.7930    0.3470   19.4740 C   0  0  0  0  0  0  0  0  0  0  0  0
    4.8570    1.3440   19.7780 C   0  0  0  0  0  0  0  0  0  0  0  0
    4.3070    2.0690   18.7130 C   0  0  0  0  0  0  0  0  0  0  0  0
    4.7190    1.7930   17.4010 C   0  0  0  0  0  0  0  0  0  0  0  0
    5.5910    0.8050   17.0980 N   0  0  0  0  0  0  0  0  0  0  0  0
    6.1200    0.1080   18.1230 C   0  0  0  0  0  0  0  0  0  0  0  0
    9.5590    1.0650   23.1760 C   0  0  0  0  0  0  0  0  0  0  0  0
  1  2  1  0
  2  3  2  0
  2  4  1  0
  4  5  1  0
  5  6  1  0
  6  7  1  0
  7 22  2  0
  7  8  1  0
  8  9  2  0
  9 10  1  0
 10 11  2  0
 11 12  1  0
 11 22  1  0
 12 13  1  0
 13 14  2  0
 13 15  1  0
 15 16  1  0
 16 17  2  0
 16 21  1  0
 17 18  1  0
 18 19  2  0
 19 20  1  0
 20 21  2  0
M  END
>  <original SMILES>  (785) 
NC(=O)NCCc1cccc(NC(=O)Nc2cccnc2)c1

>  <AutoDock Predicted Affinity>  (785) 
-6.30291

>  <ref_pdb>  (785) 
x0434_0

>  <ref_mols>  (785) 
x0434_0

>  <creator>  (785) 
Will Poole

>  <energy minimised>  (785) 
True

$$$$
WPC1511_minimised.pdb
     RDKit          3D

 24 25  0  0  0  0  0  0  0  0999 V2000
    4.6510    3.5560   21.9570 N   0  0  0  0  0  0  0  0  0  0  0  0
    5.8530    3.0620   22.3270 C   0  0  0  0  0  0  0  0  0  0  0  0
    5.9220    2.0460   23.0000 O   0  0  0  0  0  0  0  0  0  0  0  0
    6.9180    3.8000   21.8560 N   0  0  0  0  0  0  0  0  0  0  0  0
    8.2460    3.4920   22.0650 N   0  0  0  0  0  0  0  0  0  0  0  0
    8.9450    4.1000   22.9620 C   0  0  0  0  0  0  0  0  0  0  0  0
   10.4200    3.8340   23.2280 C   0  0  0  0  0  0  0  0  0  0  0  0
   10.7250    2.6470   24.1760 C   0  0  0  0  0  0  0  0  0  0  0  0
   10.4820    1.3060   23.5050 C   0  0  0  0  0  0  0  0  0  0  0  0
   11.5310    0.5500   22.9520 C   0  0  0  0  0  0  0  0  0  0  0  0
   11.2450   -0.6060   22.2030 C   0  0  0  0  0  0  0  0  0  0  0  0
    9.9090   -0.9730   21.9580 C   0  0  0  0  0  0  0  0  0  0  0  0
    8.8660   -0.2080   22.5070 C   0  0  0  0  0  0  0  0  0  0  0  0
    7.5120   -0.3280   22.1330 N   0  0  0  0  0  0  0  0  0  0  0  0
    7.0720   -0.5240   20.8560 C   0  0  0  0  0  0  0  0  0  0  0  0
    7.6270   -1.2150   20.0250 O   0  0  0  0  0  0  0  0  0  0  0  0
    5.9450    0.2120   20.6040 N   0  0  0  0  0  0  0  0  0  0  0  0
    5.5080    0.7310   19.3560 C   0  0  0  0  0  0  0  0  0  0  0  0
    4.4120    1.6020   19.3710 C   0  0  0  0  0  0  0  0  0  0  0  0
    4.1090    2.3100   18.2040 C   0  0  0  0  0  0  0  0  0  0  0  0
    4.8880    2.1130   17.0590 C   0  0  0  0  0  0  0  0  0  0  0  0
    5.8940    1.2140   16.9990 N   0  0  0  0  0  0  0  0  0  0  0  0
    6.2080    0.5590   18.1370 C   0  0  0  0  0  0  0  0  0  0  0  0
    9.1620    0.8780   23.3320 C   0  0  0  0  0  0  0  0  0  0  0  0
  1  2  1  0
  2  3  2  0
  2  4  1  0
  4  5  1  0
  5  6  2  0
  6  7  1  0
  7  8  1  0
  8  9  1  0
  9 24  2  0
  9 10  1  0
 10 11  2  0
 11 12  1  0
 12 13  2  0
 13 14  1  0
 13 24  1  0
 14 15  1  0
 15 16  2  0
 15 17  1  0
 17 18  1  0
 18 19  2  0
 18 23  1  0
 19 20  1  0
 20 21  2  0
 21 22  1  0
 22 23  2  0
M  END
>  <original SMILES>  (786) 
NC(=O)NN=CCCc1cccc(NC(=O)Nc2cccnc2)c1

>  <AutoDock Predicted Affinity>  (786) 
-5.41957

>  <ref_pdb>  (786) 
x0434_0

>  <ref_mols>  (786) 
x0434_0

>  <creator>  (786) 
Will Poole

>  <energy minimised>  (786) 
True

$$$$
WPC1720_minimised.pdb
     RDKit          3D

 23 24  0  0  0  0  0  0  0  0999 V2000
    3.9390    4.1330   21.5070 N   0  0  0  0  0  0  0  0  0  0  0  0
    4.9380    3.5980   22.2460 C   0  0  0  0  0  0  0  0  0  0  0  0
    4.6760    2.7680   23.0960 O   0  0  0  0  0  0  0  0  0  0  0  0
    6.1960    4.0730   21.9240 N   0  0  0  0  0  0  0  0  0  0  0  0
    7.3200    3.8640   22.6950 N   0  0  0  0  0  0  0  0  0  0  0  0
    8.4270    3.4510   22.1880 C   0  0  0  0  0  0  0  0  0  0  0  0
    9.6530    3.1280   23.0230 C   0  0  0  0  0  0  0  0  0  0  0  0
   10.1310    1.7070   22.7630 C   0  0  0  0  0  0  0  0  0  0  0  0
   11.4920    1.3890   22.6050 C   0  0  0  0  0  0  0  0  0  0  0  0
   11.8770    0.0900   22.2250 C   0  0  0  0  0  0  0  0  0  0  0  0
   10.8990   -0.8900   21.9750 C   0  0  0  0  0  0  0  0  0  0  0  0
    9.5460   -0.5710   22.1510 C   0  0  0  0  0  0  0  0  0  0  0  0
    8.4980   -1.4020   21.7250 N   0  0  0  0  0  0  0  0  0  0  0  0
    8.0070   -1.1800   20.4700 C   0  0  0  0  0  0  0  0  0  0  0  0
    8.6890   -1.1700   19.4620 O   0  0  0  0  0  0  0  0  0  0  0  0
    6.6780   -0.8480   20.4790 N   0  0  0  0  0  0  0  0  0  0  0  0
    6.0360   -0.0630   19.4880 C   0  0  0  0  0  0  0  0  0  0  0  0
    5.2260    1.0050   19.8990 C   0  0  0  0  0  0  0  0  0  0  0  0
    4.6930    1.8510   18.9140 C   0  0  0  0  0  0  0  0  0  0  0  0
    4.9870    1.6070   17.5650 C   0  0  0  0  0  0  0  0  0  0  0  0
    5.7430    0.5640   17.1630 N   0  0  0  0  0  0  0  0  0  0  0  0
    6.2610   -0.2460   18.1090 C   0  0  0  0  0  0  0  0  0  0  0  0
    9.1710    0.7030   22.5830 C   0  0  0  0  0  0  0  0  0  0  0  0
  1  2  1  0
  2  3  2  0
  2  4  1  0
  4  5  1  0
  5  6  2  0
  6  7  1  0
  7  8  1  0
  8 23  2  0
  8  9  1  0
  9 10  2  0
 10 11  1  0
 11 12  2  0
 12 13  1  0
 12 23  1  0
 13 14  1  0
 14 15  2  0
 14 16  1  0
 16 17  1  0
 17 18  2  0
 17 22  1  0
 18 19  1  0
 19 20  2  0
 20 21  1  0
 21 22  2  0
M  END
>  <original SMILES>  (787) 
NC(=O)NN=CCc1cccc(NC(=O)Nc2cccnc2)c1

>  <AutoDock Predicted Affinity>  (787) 
-5.76427

>  <ref_pdb>  (787) 
x0434_0

>  <ref_mols>  (787) 
x0434_0

>  <creator>  (787) 
Will Poole

>  <energy minimised>  (787) 
True

$$$$
WPC1719_minimised.pdb
     RDKit          3D

 23 24  0  0  0  0  0  0  0  0999 V2000
   12.3920    7.2610   25.4810 N   0  0  0  0  0  0  0  0  0  0  0  0
   11.9970    6.1400   24.8250 C   0  0  0  0  0  0  0  0  0  0  0  0
   10.9670    5.5810   25.1320 O   0  0  0  0  0  0  0  0  0  0  0  0
   12.8980    5.7130   23.8710 N   0  0  0  0  0  0  0  0  0  0  0  0
   13.1480    4.3890   23.6190 N   0  0  0  0  0  0  0  0  0  0  0  0
   12.2520    3.5340   23.2630 C   0  0  0  0  0  0  0  0  0  0  0  0
   12.5010    2.0860   23.6280 C   0  0  0  0  0  0  0  0  0  0  0  0
   11.8110    1.0140   22.8140 C   0  0  0  0  0  0  0  0  0  0  0  0
   12.5770   -0.0280   22.2630 C   0  0  0  0  0  0  0  0  0  0  0  0
   11.9470   -1.1090   21.6330 C   0  0  0  0  0  0  0  0  0  0  0  0
   10.5490   -1.1430   21.5430 C   0  0  0  0  0  0  0  0  0  0  0  0
    9.7830   -0.0900   22.0630 C   0  0  0  0  0  0  0  0  0  0  0  0
    8.3900   -0.0680   21.8590 N   0  0  0  0  0  0  0  0  0  0  0  0
    7.8180    0.0340   20.6230 C   0  0  0  0  0  0  0  0  0  0  0  0
    8.4580   -0.0030   19.5910 O   0  0  0  0  0  0  0  0  0  0  0  0
    6.4650    0.2310   20.6470 N   0  0  0  0  0  0  0  0  0  0  0  0
    5.7060    0.7120   19.5520 C   0  0  0  0  0  0  0  0  0  0  0  0
    4.7640    1.7210   19.7810 C   0  0  0  0  0  0  0  0  0  0  0  0
    4.1520    2.3060   18.6650 C   0  0  0  0  0  0  0  0  0  0  0  0
    4.5220    1.8950   17.3770 C   0  0  0  0  0  0  0  0  0  0  0  0
    5.3800    0.8760   17.1480 N   0  0  0  0  0  0  0  0  0  0  0  0
    5.9590    0.3050   18.2220 C   0  0  0  0  0  0  0  0  0  0  0  0
   10.4110    0.9830   22.7110 C   0  0  0  0  0  0  0  0  0  0  0  0
  1  2  1  0
  2  3  2  0
  2  4  1  0
  4  5  1  0
  5  6  1  0
  6  7  1  0
  7  8  1  0
  8 23  2  0
  8  9  1  0
  9 10  2  0
 10 11  1  0
 11 12  2  0
 12 13  1  0
 12 23  1  0
 13 14  1  0
 14 15  2  0
 14 16  1  0
 16 17  1  0
 17 18  2  0
 17 22  1  0
 18 19  1  0
 19 20  2  0
 20 21  1  0
 21 22  2  0
M  END
>  <original SMILES>  (788) 
NC(=O)NNCCc1cccc(NC(=O)Nc2cccnc2)c1

>  <AutoDock Predicted Affinity>  (788) 
-6.520135

>  <ref_pdb>  (788) 
x0434_0

>  <ref_mols>  (788) 
x0434_0

>  <creator>  (788) 
Will Poole

>  <energy minimised>  (788) 
True

$$$$
WPC1608_minimised.pdb
     RDKit          3D

 22 23  0  0  0  0  0  0  0  0999 V2000
   13.4330    5.3940   22.4690 N   0  0  0  0  0  0  0  0  0  0  0  0
   12.5370    5.1180   23.4480 C   0  0  0  0  0  0  0  0  0  0  0  0
   12.8090    5.3600   24.6040 O   0  0  0  0  0  0  0  0  0  0  0  0
   11.3650    4.5370   23.0170 N   0  0  0  0  0  0  0  0  0  0  0  0
   10.3650    4.1550   23.9510 O   0  0  0  0  0  0  0  0  0  0  0  0
   10.7140    2.9410   24.6440 C   0  0  0  0  0  0  0  0  0  0  0  0
   10.7590    1.7450   23.7060 C   0  0  0  0  0  0  0  0  0  0  0  0
   11.9810    1.2130   23.2530 C   0  0  0  0  0  0  0  0  0  0  0  0
   11.9900    0.1060   22.3860 C   0  0  0  0  0  0  0  0  0  0  0  0
   10.7770   -0.4710   21.9720 C   0  0  0  0  0  0  0  0  0  0  0  0
    9.5610    0.0590   22.4330 C   0  0  0  0  0  0  0  0  0  0  0  0
    8.3220   -0.4220   21.9700 N   0  0  0  0  0  0  0  0  0  0  0  0
    7.8770   -0.2070   20.6990 C   0  0  0  0  0  0  0  0  0  0  0  0
    8.6020    0.0740   19.7660 O   0  0  0  0  0  0  0  0  0  0  0  0
    6.5140   -0.2430   20.5940 N   0  0  0  0  0  0  0  0  0  0  0  0
    5.8070    0.3570   19.5270 C   0  0  0  0  0  0  0  0  0  0  0  0
    4.8570    1.3450   19.8150 C   0  0  0  0  0  0  0  0  0  0  0  0
    4.3050    2.0510   18.7390 C   0  0  0  0  0  0  0  0  0  0  0  0
    4.7280    1.7650   17.4330 C   0  0  0  0  0  0  0  0  0  0  0  0
    5.6120    0.7830   17.1440 N   0  0  0  0  0  0  0  0  0  0  0  0
    6.1460    0.1060   18.1810 C   0  0  0  0  0  0  0  0  0  0  0  0
    9.5550    1.1590   23.2970 C   0  0  0  0  0  0  0  0  0  0  0  0
  1  2  1  0
  2  3  2  0
  2  4  1  0
  4  5  1  0
  5  6  1  0
  6  7  1  0
  7 22  2  0
  7  8  1  0
  8  9  2  0
  9 10  1  0
 10 11  2  0
 11 12  1  0
 11 22  1  0
 12 13  1  0
 13 14  2  0
 13 15  1  0
 15 16  1  0
 16 17  2  0
 16 21  1  0
 17 18  1  0
 18 19  2  0
 19 20  1  0
 20 21  2  0
M  END
>  <original SMILES>  (789) 
NC(=O)NOCc1cccc(NC(=O)Nc2cccnc2)c1

>  <AutoDock Predicted Affinity>  (789) 
-6.169593

>  <ref_pdb>  (789) 
x0434_0

>  <ref_mols>  (789) 
x0434_0

>  <creator>  (789) 
Will Poole

>  <energy minimised>  (789) 
True

$$$$
WPC1592_minimised.pdb
     RDKit          3D

 23 24  0  0  0  0  0  0  0  0999 V2000
   12.5500    6.8560   25.8270 N   0  0  0  0  0  0  0  0  0  0  0  0
   12.4000    6.1210   24.7020 C   0  0  0  0  0  0  0  0  0  0  0  0
   13.2190    5.3090   24.3390 O   0  0  0  0  0  0  0  0  0  0  0  0
   11.1690    6.3250   24.1830 O   0  0  0  0  0  0  0  0  0  0  0  0
   10.7330    5.4790   23.0950 C   0  0  0  0  0  0  0  0  0  0  0  0
    9.8440    4.3580   23.6610 C   0  0  0  0  0  0  0  0  0  0  0  0
   10.5960    3.2150   24.3980 C   0  0  0  0  0  0  0  0  0  0  0  0
   10.7490    1.9580   23.5610 C   0  0  0  0  0  0  0  0  0  0  0  0
   12.0060    1.5110   23.1180 C   0  0  0  0  0  0  0  0  0  0  0  0
   12.1040    0.3520   22.3270 C   0  0  0  0  0  0  0  0  0  0  0  0
   10.9420   -0.3520   21.9630 C   0  0  0  0  0  0  0  0  0  0  0  0
    9.6900    0.0940   22.4140 C   0  0  0  0  0  0  0  0  0  0  0  0
    8.4830   -0.4840   21.9780 N   0  0  0  0  0  0  0  0  0  0  0  0
    7.9930   -0.2790   20.7210 C   0  0  0  0  0  0  0  0  0  0  0  0
    8.6830   -0.0150   19.7580 O   0  0  0  0  0  0  0  0  0  0  0  0
    6.6270   -0.2940   20.6620 N   0  0  0  0  0  0  0  0  0  0  0  0
    5.9000    0.3060   19.6060 C   0  0  0  0  0  0  0  0  0  0  0  0
    4.9910    1.3310   19.9020 C   0  0  0  0  0  0  0  0  0  0  0  0
    4.4140    2.0200   18.8280 C   0  0  0  0  0  0  0  0  0  0  0  0
    4.7750    1.6840   17.5140 C   0  0  0  0  0  0  0  0  0  0  0  0
    5.6220    0.6730   17.2220 N   0  0  0  0  0  0  0  0  0  0  0  0
    6.1800    0.0110   18.2560 C   0  0  0  0  0  0  0  0  0  0  0  0
    9.6000    1.2300   23.2230 C   0  0  0  0  0  0  0  0  0  0  0  0
  1  2  1  0
  2  3  2  0
  2  4  1  0
  4  5  1  0
  5  6  1  0
  6  7  1  0
  7  8  1  0
  8 23  2  0
  8  9  1  0
  9 10  2  0
 10 11  1  0
 11 12  2  0
 12 13  1  0
 12 23  1  0
 13 14  1  0
 14 15  2  0
 14 16  1  0
 16 17  1  0
 17 18  2  0
 17 22  1  0
 18 19  1  0
 19 20  2  0
 20 21  1  0
 21 22  2  0
M  END
>  <original SMILES>  (790) 
NC(=O)OCCCc1cccc(NC(=O)Nc2cccnc2)c1

>  <AutoDock Predicted Affinity>  (790) 
-5.63058

>  <ref_pdb>  (790) 
x0434_0

>  <ref_mols>  (790) 
x0434_0

>  <creator>  (790) 
Will Poole

>  <energy minimised>  (790) 
True

$$$$
WPC2072_minimised.pdb
     RDKit          3D

 22 23  0  0  0  0  0  0  0  0999 V2000
   13.9810    5.3690   22.6320 N   0  0  0  0  0  0  0  0  0  0  0  0
   12.9060    5.1630   23.4180 C   0  0  0  0  0  0  0  0  0  0  0  0
   12.8520    5.5280   24.5730 O   0  0  0  0  0  0  0  0  0  0  0  0
   11.9450    4.5290   22.7150 O   0  0  0  0  0  0  0  0  0  0  0  0
   10.7010    4.2120   23.3730 C   0  0  0  0  0  0  0  0  0  0  0  0
   10.8890    2.9750   24.2760 C   0  0  0  0  0  0  0  0  0  0  0  0
   10.9030    1.6780   23.4870 C   0  0  0  0  0  0  0  0  0  0  0  0
   12.1070    1.0870   23.0610 C   0  0  0  0  0  0  0  0  0  0  0  0
   12.0800   -0.0850   22.2820 C   0  0  0  0  0  0  0  0  0  0  0  0
   10.8490   -0.6640   21.9260 C   0  0  0  0  0  0  0  0  0  0  0  0
    9.6520   -0.0750   22.3590 C   0  0  0  0  0  0  0  0  0  0  0  0
    8.3950   -0.5470   21.9340 N   0  0  0  0  0  0  0  0  0  0  0  0
    7.9030   -0.2930   20.6850 C   0  0  0  0  0  0  0  0  0  0  0  0
    8.5940   -0.0000   19.7320 O   0  0  0  0  0  0  0  0  0  0  0  0
    6.5370   -0.3080   20.6230 N   0  0  0  0  0  0  0  0  0  0  0  0
    5.8090    0.2960   19.5710 C   0  0  0  0  0  0  0  0  0  0  0  0
    4.8820    1.3010   19.8750 C   0  0  0  0  0  0  0  0  0  0  0  0
    4.3030    1.9990   18.8060 C   0  0  0  0  0  0  0  0  0  0  0  0
    4.6750    1.6840   17.4910 C   0  0  0  0  0  0  0  0  0  0  0  0
    5.5420    0.6910   17.1890 N   0  0  0  0  0  0  0  0  0  0  0  0
    6.1030    0.0250   18.2180 C   0  0  0  0  0  0  0  0  0  0  0  0
    9.6810    1.0840   23.1420 C   0  0  0  0  0  0  0  0  0  0  0  0
  1  2  1  0
  2  3  2  0
  2  4  1  0
  4  5  1  0
  5  6  1  0
  6  7  1  0
  7 22  2  0
  7  8  1  0
  8  9  2  0
  9 10  1  0
 10 11  2  0
 11 12  1  0
 11 22  1  0
 12 13  1  0
 13 14  2  0
 13 15  1  0
 15 16  1  0
 16 17  2  0
 16 21  1  0
 17 18  1  0
 18 19  2  0
 19 20  1  0
 20 21  2  0
M  END
>  <original SMILES>  (791) 
NC(=O)OCCc1cccc(NC(=O)Nc2cccnc2)c1

>  <AutoDock Predicted Affinity>  (791) 
-5.844557

>  <ref_pdb>  (791) 
x0434_0

>  <ref_mols>  (791) 
x0434_0

>  <creator>  (791) 
Will Poole

>  <energy minimised>  (791) 
True

$$$$
WPC1696_minimised.pdb
     RDKit          3D

 22 23  0  0  0  0  0  0  0  0999 V2000
   13.7920    5.5100   22.6450 N   0  0  0  0  0  0  0  0  0  0  0  0
   12.6490    5.4300   23.3680 C   0  0  0  0  0  0  0  0  0  0  0  0
   12.4550    6.2770   24.7790 S   0  0  0  0  0  0  0  0  0  0  0  0
   11.7340    4.5690   22.8360 N   0  0  0  0  0  0  0  0  0  0  0  0
   10.4930    4.1900   23.5220 C   0  0  0  0  0  0  0  0  0  0  0  0
   10.7190    2.9300   24.3780 C   0  0  0  0  0  0  0  0  0  0  0  0
   10.7850    1.6630   23.5470 C   0  0  0  0  0  0  0  0  0  0  0  0
   12.0120    1.1090   23.1390 C   0  0  0  0  0  0  0  0  0  0  0  0
   12.0300   -0.0440   22.3350 C   0  0  0  0  0  0  0  0  0  0  0  0
   10.8220   -0.6430   21.9370 C   0  0  0  0  0  0  0  0  0  0  0  0
    9.6010   -0.0890   22.3520 C   0  0  0  0  0  0  0  0  0  0  0  0
    8.3660   -0.5780   21.8890 N   0  0  0  0  0  0  0  0  0  0  0  0
    7.8940   -0.3000   20.6400 C   0  0  0  0  0  0  0  0  0  0  0  0
    8.6010    0.0250   19.7070 O   0  0  0  0  0  0  0  0  0  0  0  0
    6.5290   -0.3240   20.5550 N   0  0  0  0  0  0  0  0  0  0  0  0
    5.8110    0.3040   19.5110 C   0  0  0  0  0  0  0  0  0  0  0  0
    4.8820    1.3040   19.8250 C   0  0  0  0  0  0  0  0  0  0  0  0
    4.3200    2.0270   18.7640 C   0  0  0  0  0  0  0  0  0  0  0  0
    4.7110    1.7430   17.4480 C   0  0  0  0  0  0  0  0  0  0  0  0
    5.5780    0.7540   17.1370 N   0  0  0  0  0  0  0  0  0  0  0  0
    6.1210    0.0610   18.1570 C   0  0  0  0  0  0  0  0  0  0  0  0
    9.5860    1.0540   23.1560 C   0  0  0  0  0  0  0  0  0  0  0  0
  1  2  1  0
  2  3  2  0
  2  4  1  0
  4  5  1  0
  5  6  1  0
  6  7  1  0
  7 22  2  0
  7  8  1  0
  8  9  2  0
  9 10  1  0
 10 11  2  0
 11 12  1  0
 11 22  1  0
 12 13  1  0
 13 14  2  0
 13 15  1  0
 15 16  1  0
 16 17  2  0
 16 21  1  0
 17 18  1  0
 18 19  2  0
 19 20  1  0
 20 21  2  0
M  END
>  <original SMILES>  (792) 
NC(=S)NCCc1cccc(NC(=O)Nc2cccnc2)c1

>  <AutoDock Predicted Affinity>  (792) 
-5.87651

>  <ref_pdb>  (792) 
x0434_0

>  <ref_mols>  (792) 
x0434_0

>  <creator>  (792) 
Will Poole

>  <energy minimised>  (792) 
True

$$$$
WPC1914_minimised.pdb
     RDKit          3D

 24 25  0  0  0  0  0  0  0  0999 V2000
    7.5630    5.0360   21.5080 N   0  0  0  0  0  0  0  0  0  0  0  0
    8.5940    4.8510   22.3750 C   0  0  0  0  0  0  0  0  0  0  0  0
    9.3680    6.1580   23.0680 S   0  0  0  0  0  0  0  0  0  0  0  0
    8.9150    3.5230   22.5740 N   0  0  0  0  0  0  0  0  0  0  0  0
    9.9120    3.1310   23.4260 N   0  0  0  0  0  0  0  0  0  0  0  0
   11.1300    3.3290   23.0630 C   0  0  0  0  0  0  0  0  0  0  0  0
   12.2940    2.9980   23.9500 C   0  0  0  0  0  0  0  0  0  0  0  0
   12.2910    1.5280   24.4250 C   0  0  0  0  0  0  0  0  0  0  0  0
   12.2470    0.5480   23.2810 C   0  0  0  0  0  0  0  0  0  0  0  0
   13.4320    0.0640   22.7020 C   0  0  0  0  0  0  0  0  0  0  0  0
   13.3640   -0.8670   21.6560 C   0  0  0  0  0  0  0  0  0  0  0  0
   12.1130   -1.2690   21.1670 C   0  0  0  0  0  0  0  0  0  0  0  0
   10.9320   -0.7540   21.7210 C   0  0  0  0  0  0  0  0  0  0  0  0
    9.6690   -1.0690   21.1790 N   0  0  0  0  0  0  0  0  0  0  0  0
    8.7480   -0.1490   20.7440 C   0  0  0  0  0  0  0  0  0  0  0  0
    8.9300    1.0550   20.7540 O   0  0  0  0  0  0  0  0  0  0  0  0
    7.6160   -0.7230   20.2310 N   0  0  0  0  0  0  0  0  0  0  0  0
    6.6340   -0.0280   19.4820 C   0  0  0  0  0  0  0  0  0  0  0  0
    5.8370    0.9610   20.0740 C   0  0  0  0  0  0  0  0  0  0  0  0
    4.9790    1.6980   19.2420 C   0  0  0  0  0  0  0  0  0  0  0  0
    4.9580    1.4380   17.8630 C   0  0  0  0  0  0  0  0  0  0  0  0
    5.6990    0.4590   17.2950 N   0  0  0  0  0  0  0  0  0  0  0  0
    6.5150   -0.2490   18.0990 C   0  0  0  0  0  0  0  0  0  0  0  0
   11.0040    0.1280   22.7990 C   0  0  0  0  0  0  0  0  0  0  0  0
  1  2  1  0
  2  3  2  0
  2  4  1  0
  4  5  1  0
  5  6  2  0
  6  7  1  0
  7  8  1  0
  8  9  1  0
  9 24  2  0
  9 10  1  0
 10 11  2  0
 11 12  1  0
 12 13  2  0
 13 14  1  0
 13 24  1  0
 14 15  1  0
 15 16  2  0
 15 17  1  0
 17 18  1  0
 18 19  2  0
 18 23  1  0
 19 20  1  0
 20 21  2  0
 21 22  1  0
 22 23  2  0
M  END
>  <original SMILES>  (793) 
NC(=S)NN=CCCc1cccc(NC(=O)Nc2cccnc2)c1

>  <AutoDock Predicted Affinity>  (793) 
-5.657995

>  <ref_pdb>  (793) 
x0434_0

>  <ref_mols>  (793) 
x0434_0

>  <creator>  (793) 
Will Poole

>  <energy minimised>  (793) 
True

$$$$
WPC2090_minimised.pdb
     RDKit          3D

 24 25  0  0  0  0  0  0  0  0999 V2000
   11.0660    5.4010   23.0470 N   0  0  0  0  0  0  0  0  0  0  0  0
   12.2190    5.7940   23.6660 C   0  0  0  0  0  0  0  0  0  0  0  0
   12.2010    6.4930   25.1630 S   0  0  0  0  0  0  0  0  0  0  0  0
   13.3770    5.6910   22.9190 N   0  0  0  0  0  0  0  0  0  0  0  0
   13.4300    5.1930   21.6360 N   0  0  0  0  0  0  0  0  0  0  0  0
   13.6510    3.9450   21.3930 C   0  0  0  0  0  0  0  0  0  0  0  0
   14.0520    2.9240   22.4360 C   0  0  0  0  0  0  0  0  0  0  0  0
   12.5400    2.4940   23.4010 S   0  0  0  0  0  0  0  0  0  0  0  0
   11.9860    0.8990   22.8640 C   0  0  0  0  0  0  0  0  0  0  0  0
   12.8610   -0.1940   22.7780 C   0  0  0  0  0  0  0  0  0  0  0  0
   12.3580   -1.4680   22.4630 C   0  0  0  0  0  0  0  0  0  0  0  0
   10.9840   -1.6430   22.2250 C   0  0  0  0  0  0  0  0  0  0  0  0
   10.1190   -0.5420   22.2870 C   0  0  0  0  0  0  0  0  0  0  0  0
    8.7500   -0.6800   21.9850 N   0  0  0  0  0  0  0  0  0  0  0  0
    8.1830   -0.1770   20.8490 C   0  0  0  0  0  0  0  0  0  0  0  0
    8.8280    0.3310   19.9570 O   0  0  0  0  0  0  0  0  0  0  0  0
    6.8190   -0.2550   20.7960 N   0  0  0  0  0  0  0  0  0  0  0  0
    6.0520    0.3230   19.7540 C   0  0  0  0  0  0  0  0  0  0  0  0
    5.1100    1.3150   20.0510 C   0  0  0  0  0  0  0  0  0  0  0  0
    4.5010    1.9780   18.9760 C   0  0  0  0  0  0  0  0  0  0  0  0
    4.8520    1.6370   17.6600 C   0  0  0  0  0  0  0  0  0  0  0  0
    5.7260    0.6480   17.3650 N   0  0  0  0  0  0  0  0  0  0  0  0
    6.3260    0.0270   18.4010 C   0  0  0  0  0  0  0  0  0  0  0  0
   10.6210    0.7250   22.6090 C   0  0  0  0  0  0  0  0  0  0  0  0
  1  2  1  0
  2  3  2  0
  2  4  1  0
  4  5  1  0
  5  6  2  0
  6  7  1  0
  7  8  1  0
  8  9  1  0
  9 24  2  0
  9 10  1  0
 10 11  2  0
 11 12  1  0
 12 13  2  0
 13 14  1  0
 13 24  1  0
 14 15  1  0
 15 16  2  0
 15 17  1  0
 17 18  1  0
 18 19  2  0
 18 23  1  0
 19 20  1  0
 20 21  2  0
 21 22  1  0
 22 23  2  0
M  END
>  <original SMILES>  (794) 
NC(=S)NN=CCSc1cccc(NC(=O)Nc2cccnc2)c1

>  <AutoDock Predicted Affinity>  (794) 
-5.226833

>  <ref_pdb>  (794) 
x0434_0

>  <ref_mols>  (794) 
x0434_0

>  <creator>  (794) 
Will Poole

>  <energy minimised>  (794) 
True

$$$$
WPC1555_minimised.pdb
     RDKit          3D

 23 24  0  0  0  0  0  0  0  0999 V2000
    6.8100    4.6300   21.4420 N   0  0  0  0  0  0  0  0  0  0  0  0
    7.4220    3.8300   22.3550 C   0  0  0  0  0  0  0  0  0  0  0  0
    6.7170    2.4130   22.8960 S   0  0  0  0  0  0  0  0  0  0  0  0
    8.6310    4.3710   22.7510 N   0  0  0  0  0  0  0  0  0  0  0  0
    9.5150    3.7570   23.5970 N   0  0  0  0  0  0  0  0  0  0  0  0
   10.6650    3.4060   23.1370 C   0  0  0  0  0  0  0  0  0  0  0  0
   11.5340    2.3830   23.8270 C   0  0  0  0  0  0  0  0  0  0  0  0
   11.3380    1.0200   23.1890 C   0  0  0  0  0  0  0  0  0  0  0  0
   12.4200    0.2660   22.6980 C   0  0  0  0  0  0  0  0  0  0  0  0
   12.1800   -0.9360   22.0080 C   0  0  0  0  0  0  0  0  0  0  0  0
   10.8600   -1.3610   21.7770 C   0  0  0  0  0  0  0  0  0  0  0  0
    9.7860   -0.5980   22.2510 C   0  0  0  0  0  0  0  0  0  0  0  0
    8.4600   -0.8500   21.8510 N   0  0  0  0  0  0  0  0  0  0  0  0
    7.9900   -0.4450   20.6320 C   0  0  0  0  0  0  0  0  0  0  0  0
    8.6960   -0.1880   19.6790 O   0  0  0  0  0  0  0  0  0  0  0  0
    6.6350   -0.2930   20.5880 N   0  0  0  0  0  0  0  0  0  0  0  0
    5.9330    0.3440   19.5370 C   0  0  0  0  0  0  0  0  0  0  0  0
    5.0020    1.3460   19.8380 C   0  0  0  0  0  0  0  0  0  0  0  0
    4.4140    2.0360   18.7700 C   0  0  0  0  0  0  0  0  0  0  0  0
    4.7900    1.7250   17.4550 C   0  0  0  0  0  0  0  0  0  0  0  0
    5.6620    0.7380   17.1550 N   0  0  0  0  0  0  0  0  0  0  0  0
    6.2230    0.0710   18.1840 C   0  0  0  0  0  0  0  0  0  0  0  0
   10.0280    0.5580   22.9920 C   0  0  0  0  0  0  0  0  0  0  0  0
  1  2  1  0
  2  3  2  0
  2  4  1  0
  4  5  1  0
  5  6  2  0
  6  7  1  0
  7  8  1  0
  8 23  2  0
  8  9  1  0
  9 10  2  0
 10 11  1  0
 11 12  2  0
 12 13  1  0
 12 23  1  0
 13 14  1  0
 14 15  2  0
 14 16  1  0
 16 17  1  0
 17 18  2  0
 17 22  1  0
 18 19  1  0
 19 20  2  0
 20 21  1  0
 21 22  2  0
M  END
>  <original SMILES>  (795) 
NC(=S)NN=CCc1cccc(NC(=O)Nc2cccnc2)c1

>  <AutoDock Predicted Affinity>  (795) 
-5.65079

>  <ref_pdb>  (795) 
x0434_0

>  <ref_mols>  (795) 
x0434_0

>  <creator>  (795) 
Will Poole

>  <energy minimised>  (795) 
True

$$$$
WPC1566_minimised.pdb
     RDKit          3D

 23 24  0  0  0  0  0  0  0  0999 V2000
    9.6360    6.2160   22.7800 N   0  0  0  0  0  0  0  0  0  0  0  0
   10.6190    5.4950   23.3880 C   0  0  0  0  0  0  0  0  0  0  0  0
   11.3690    6.0410   24.7600 S   0  0  0  0  0  0  0  0  0  0  0  0
   10.8360    4.2850   22.7740 N   0  0  0  0  0  0  0  0  0  0  0  0
   11.6020    3.2670   23.2740 N   0  0  0  0  0  0  0  0  0  0  0  0
   11.1630    2.5900   24.2750 C   0  0  0  0  0  0  0  0  0  0  0  0
   11.6810    1.2070   24.5690 C   0  0  0  0  0  0  0  0  0  0  0  0
   11.2250    0.2350   23.5090 C   0  0  0  0  0  0  0  0  0  0  0  0
   12.1540   -0.4070   22.6740 C   0  0  0  0  0  0  0  0  0  0  0  0
   11.7090   -1.3210   21.7100 C   0  0  0  0  0  0  0  0  0  0  0  0
   10.3330   -1.5350   21.5410 C   0  0  0  0  0  0  0  0  0  0  0  0
    9.4060   -0.8170   22.3050 C   0  0  0  0  0  0  0  0  0  0  0  0
    8.0460   -0.8110   21.9440 N   0  0  0  0  0  0  0  0  0  0  0  0
    7.6110   -0.3510   20.7320 C   0  0  0  0  0  0  0  0  0  0  0  0
    8.3500   -0.0760   19.8060 O   0  0  0  0  0  0  0  0  0  0  0  0
    6.2560   -0.1880   20.6550 N   0  0  0  0  0  0  0  0  0  0  0  0
    5.5950    0.4390   19.5730 C   0  0  0  0  0  0  0  0  0  0  0  0
    4.6670    1.4560   19.8320 C   0  0  0  0  0  0  0  0  0  0  0  0
    4.1390    2.1470   18.7340 C   0  0  0  0  0  0  0  0  0  0  0  0
    4.5580    1.8150   17.4370 C   0  0  0  0  0  0  0  0  0  0  0  0
    5.4220    0.8080   17.1770 N   0  0  0  0  0  0  0  0  0  0  0  0
    5.9330    0.1470   18.2330 C   0  0  0  0  0  0  0  0  0  0  0  0
    9.8490    0.0340   23.3180 C   0  0  0  0  0  0  0  0  0  0  0  0
  1  2  1  0
  2  3  2  0
  2  4  1  0
  4  5  1  0
  5  6  1  0
  6  7  1  0
  7  8  1  0
  8 23  2  0
  8  9  1  0
  9 10  2  0
 10 11  1  0
 11 12  2  0
 12 13  1  0
 12 23  1  0
 13 14  1  0
 14 15  2  0
 14 16  1  0
 16 17  1  0
 17 18  2  0
 17 22  1  0
 18 19  1  0
 19 20  2  0
 20 21  1  0
 21 22  2  0
M  END
>  <original SMILES>  (796) 
NC(=S)NNCCc1cccc(NC(=O)Nc2cccnc2)c1

>  <AutoDock Predicted Affinity>  (796) 
-5.91351

>  <ref_pdb>  (796) 
x0434_0

>  <ref_mols>  (796) 
x0434_0

>  <creator>  (796) 
Will Poole

>  <energy minimised>  (796) 
True

$$$$
WPC2136_minimised.pdb
     RDKit          3D

 24 25  0  0  1  0  0  0  0  0999 V2000
   12.2660    5.8720   24.4130 N   0  0  0  0  0  0  0  0  0  0  0  0
   12.0980    5.0950   23.1540 C   0  0  2  0  0  0  0  0  0  0  0  0
   11.5830    3.6720   23.4420 C   0  0  0  0  0  0  0  0  0  0  0  0
   10.2900    3.6250   24.2770 C   0  0  0  0  0  0  0  0  0  0  0  0
   10.2130    2.0440   25.2140 S   0  0  0  0  0  0  0  0  0  0  0  0
   10.2830    0.8090   23.9500 C   0  0  0  0  0  0  0  0  0  0  0  0
   11.5060    0.2890   23.4940 C   0  0  0  0  0  0  0  0  0  0  0  0
   11.5180   -0.6620   22.4570 C   0  0  0  0  0  0  0  0  0  0  0  0
   10.3070   -1.0790   21.8800 C   0  0  0  0  0  0  0  0  0  0  0  0
    9.0930   -0.5490   22.3450 C   0  0  0  0  0  0  0  0  0  0  0  0
    7.8710   -0.8270   21.7160 N   0  0  0  0  0  0  0  0  0  0  0  0
    7.5840   -0.3980   20.4560 C   0  0  0  0  0  0  0  0  0  0  0  0
    8.4190   -0.1170   19.6190 O   0  0  0  0  0  0  0  0  0  0  0  0
    6.2420   -0.2300   20.2700 N   0  0  0  0  0  0  0  0  0  0  0  0
    5.6650    0.5050   19.2120 C   0  0  0  0  0  0  0  0  0  0  0  0
    4.7020    1.4800   19.4980 C   0  0  0  0  0  0  0  0  0  0  0  0
    4.2490    2.2750   18.4380 C   0  0  0  0  0  0  0  0  0  0  0  0
    4.7900    2.0960   17.1570 C   0  0  0  0  0  0  0  0  0  0  0  0
    5.6970    1.1360   16.8700 N   0  0  0  0  0  0  0  0  0  0  0  0
    6.1230    0.3640   17.8880 C   0  0  0  0  0  0  0  0  0  0  0  0
    9.0810    0.3840   23.3820 C   0  0  0  0  0  0  0  0  0  0  0  0
   13.4000    4.9880   22.3270 C   0  0  0  0  0  0  0  0  0  0  0  0
   14.5070    4.9500   22.8300 O   0  0  0  0  0  0  0  0  0  0  0  0
   13.2310    5.0400   20.9960 O   0  0  0  0  0  0  0  0  0  0  0  0
  2  1  1  1
  2 22  1  0
  2  3  1  0
  3  4  1  0
  4  5  1  0
  5  6  1  0
  6 21  2  0
  6  7  1  0
  7  8  2  0
  8  9  1  0
  9 10  2  0
 10 11  1  0
 10 21  1  0
 11 12  1  0
 12 13  2  0
 12 14  1  0
 14 15  1  0
 15 16  2  0
 15 20  1  0
 16 17  1  0
 17 18  2  0
 18 19  1  0
 19 20  2  0
 22 23  2  0
 22 24  1  0
M  END
>  <original SMILES>  (797) 
NC(CCSc1cccc(NC(=O)Nc2cccnc2)c1)C(=O)O

>  <AutoDock Predicted Affinity>  (797) 
-5.086838

>  <ref_pdb>  (797) 
x0434_0

>  <ref_mols>  (797) 
x0434_0

>  <creator>  (797) 
Will Poole

>  <energy minimised>  (797) 
True

$$$$
WPC1522_minimised.pdb
     RDKit          3D

 23 24  0  0  1  0  0  0  0  0999 V2000
   12.4000    4.8430   22.1890 N   0  0  0  0  0  0  0  0  0  0  0  0
   11.2100    4.2880   22.8900 C   0  0  1  0  0  0  0  0  0  0  0  0
   11.6470    3.3960   24.0750 C   0  0  0  0  0  0  0  0  0  0  0  0
   12.5090    2.1610   23.7050 C   0  0  0  0  0  0  0  0  0  0  0  0
   11.8460    1.0320   22.9330 C   0  0  0  0  0  0  0  0  0  0  0  0
   12.6810    0.0640   22.3470 C   0  0  0  0  0  0  0  0  0  0  0  0
   12.1330   -1.0600   21.7130 C   0  0  0  0  0  0  0  0  0  0  0  0
   10.7410   -1.2150   21.6530 C   0  0  0  0  0  0  0  0  0  0  0  0
    9.9020   -0.2430   22.2110 C   0  0  0  0  0  0  0  0  0  0  0  0
    8.5100   -0.3260   22.0150 N   0  0  0  0  0  0  0  0  0  0  0  0
    7.9120    0.0090   20.8330 C   0  0  0  0  0  0  0  0  0  0  0  0
    8.5390    0.3610   19.8540 O   0  0  0  0  0  0  0  0  0  0  0  0
    6.5440   -0.0460   20.8290 N   0  0  0  0  0  0  0  0  0  0  0  0
    5.7580    0.4480   19.7580 C   0  0  0  0  0  0  0  0  0  0  0  0
    4.7970    1.4340   20.0090 C   0  0  0  0  0  0  0  0  0  0  0  0
    4.1870    2.0420   18.9040 C   0  0  0  0  0  0  0  0  0  0  0  0
    4.5570    1.6560   17.6070 C   0  0  0  0  0  0  0  0  0  0  0  0
    5.4420    0.6650   17.3560 N   0  0  0  0  0  0  0  0  0  0  0  0
    6.0390    0.0920   18.4200 C   0  0  0  0  0  0  0  0  0  0  0  0
   10.4490    0.8700   22.8630 C   0  0  0  0  0  0  0  0  0  0  0  0
   10.2430    5.3890   23.4020 C   0  0  0  0  0  0  0  0  0  0  0  0
   10.3130    5.8720   24.5150 O   0  0  0  0  0  0  0  0  0  0  0  0
    9.3920    5.9010   22.4980 O   0  0  0  0  0  0  0  0  0  0  0  0
  2  1  1  1
  2 21  1  0
  2  3  1  0
  3  4  1  0
  4  5  1  0
  5 20  2  0
  5  6  1  0
  6  7  2  0
  7  8  1  0
  8  9  2  0
  9 10  1  0
  9 20  1  0
 10 11  1  0
 11 12  2  0
 11 13  1  0
 13 14  1  0
 14 15  2  0
 14 19  1  0
 15 16  1  0
 16 17  2  0
 17 18  1  0
 18 19  2  0
 21 22  2  0
 21 23  1  0
M  END
>  <original SMILES>  (798) 
NC(CCc1cccc(NC(=O)Nc2cccnc2)c1)C(=O)O

>  <AutoDock Predicted Affinity>  (798) 
-5.588497

>  <ref_pdb>  (798) 
x0434_0

>  <ref_mols>  (798) 
x0434_0

>  <creator>  (798) 
Will Poole

>  <energy minimised>  (798) 
True

$$$$
WPC2626_minimised.pdb
     RDKit          3D

 24 25  0  0  1  0  0  0  0  0999 V2000
   12.6210    5.6010   24.7380 N   0  0  0  0  0  0  0  0  0  0  0  0
   11.2660    4.9970   24.5580 C   0  0  1  0  0  0  0  0  0  0  0  0
   10.6210    5.5150   23.2600 C   0  0  0  0  0  0  0  0  0  0  0  0
   11.5280    5.2940   22.1780 O   0  0  0  0  0  0  0  0  0  0  0  0
   11.2380    3.4540   24.5410 C   0  0  0  0  0  0  0  0  0  0  0  0
   10.5210    2.8150   25.2840 O   0  0  0  0  0  0  0  0  0  0  0  0
   12.1190    2.8540   23.6710 N   0  0  0  0  0  0  0  0  0  0  0  0
   12.6550    1.5070   23.8610 C   0  0  0  0  0  0  0  0  0  0  0  0
   11.9660    0.4670   23.0120 C   0  0  0  0  0  0  0  0  0  0  0  0
   12.7300   -0.4130   22.2300 C   0  0  0  0  0  0  0  0  0  0  0  0
   12.0950   -1.4170   21.4900 C   0  0  0  0  0  0  0  0  0  0  0  0
   10.6970   -1.5250   21.5100 C   0  0  0  0  0  0  0  0  0  0  0  0
    9.9310   -0.6120   22.2440 C   0  0  0  0  0  0  0  0  0  0  0  0
    8.5340   -0.5700   22.0630 N   0  0  0  0  0  0  0  0  0  0  0  0
    7.9670   -0.0880   20.9160 C   0  0  0  0  0  0  0  0  0  0  0  0
    8.6160    0.3100   19.9700 O   0  0  0  0  0  0  0  0  0  0  0  0
    6.6000   -0.0690   20.8960 N   0  0  0  0  0  0  0  0  0  0  0  0
    5.8570    0.4700   19.8170 C   0  0  0  0  0  0  0  0  0  0  0  0
    4.9360    1.4980   20.0510 C   0  0  0  0  0  0  0  0  0  0  0  0
    4.3730    2.1300   18.9330 C   0  0  0  0  0  0  0  0  0  0  0  0
    4.7490    1.7260   17.6420 C   0  0  0  0  0  0  0  0  0  0  0  0
    5.5960    0.7000   17.4080 N   0  0  0  0  0  0  0  0  0  0  0  0
    6.1450    0.1010   18.4840 C   0  0  0  0  0  0  0  0  0  0  0  0
   10.5640    0.3660   23.0150 C   0  0  0  0  0  0  0  0  0  0  0  0
  2  1  1  6
  2  3  1  0
  2  5  1  0
  3  4  1  0
  5  6  2  0
  5  7  1  0
  7  8  1  0
  8  9  1  0
  9 24  2  0
  9 10  1  0
 10 11  2  0
 11 12  1  0
 12 13  2  0
 13 14  1  0
 13 24  1  0
 14 15  1  0
 15 16  2  0
 15 17  1  0
 17 18  1  0
 18 19  2  0
 18 23  1  0
 19 20  1  0
 20 21  2  0
 21 22  1  0
 22 23  2  0
M  END
>  <original SMILES>  (799) 
NC(CO)C(=O)NCc1cccc(NC(=O)Nc2cccnc2)c1

>  <AutoDock Predicted Affinity>  (799) 
-5.74995

>  <ref_pdb>  (799) 
x0434_0

>  <ref_mols>  (799) 
x0434_0

>  <creator>  (799) 
Will Poole

>  <energy minimised>  (799) 
True

$$$$
WPC2167_minimised.pdb
     RDKit          3D

 21 22  0  0  1  0  0  0  0  0999 V2000
    8.9420    4.2990   23.0760 N   0  0  0  0  0  0  0  0  0  0  0  0
   10.0880    4.5400   23.9680 C   0  0  2  0  0  0  0  0  0  0  0  0
   11.1440    5.4620   23.3200 C   0  0  0  0  0  0  0  0  0  0  0  0
   11.7960    4.8700   22.2000 O   0  0  0  0  0  0  0  0  0  0  0  0
   10.6920    3.2320   24.5460 C   0  0  0  0  0  0  0  0  0  0  0  0
   10.7930    2.0340   23.6090 C   0  0  0  0  0  0  0  0  0  0  0  0
   12.0310    1.5940   23.1080 C   0  0  0  0  0  0  0  0  0  0  0  0
   12.0970    0.4590   22.2800 C   0  0  0  0  0  0  0  0  0  0  0  0
   10.9200   -0.2250   21.9290 C   0  0  0  0  0  0  0  0  0  0  0  0
    9.6850    0.2150   22.4310 C   0  0  0  0  0  0  0  0  0  0  0  0
    8.4660   -0.3470   22.0070 N   0  0  0  0  0  0  0  0  0  0  0  0
    7.9750   -0.1670   20.7450 C   0  0  0  0  0  0  0  0  0  0  0  0
    8.6620    0.1210   19.7860 O   0  0  0  0  0  0  0  0  0  0  0  0
    6.6120   -0.2390   20.6710 N   0  0  0  0  0  0  0  0  0  0  0  0
    5.8710    0.3280   19.6060 C   0  0  0  0  0  0  0  0  0  0  0  0
    4.9350    1.3310   19.8900 C   0  0  0  0  0  0  0  0  0  0  0  0
    4.3480    2.0000   18.8080 C   0  0  0  0  0  0  0  0  0  0  0  0
    4.7240    1.6630   17.4990 C   0  0  0  0  0  0  0  0  0  0  0  0
    5.5980    0.6710   17.2170 N   0  0  0  0  0  0  0  0  0  0  0  0
    6.1660    0.0300   18.2590 C   0  0  0  0  0  0  0  0  0  0  0  0
    9.6300    1.3210   23.2850 C   0  0  0  0  0  0  0  0  0  0  0  0
  2  1  1  6
  2  3  1  0
  2  5  1  0
  3  4  1  0
  5  6  1  0
  6 21  2  0
  6  7  1  0
  7  8  2  0
  8  9  1  0
  9 10  2  0
 10 11  1  0
 10 21  1  0
 11 12  1  0
 12 13  2  0
 12 14  1  0
 14 15  1  0
 15 16  2  0
 15 20  1  0
 16 17  1  0
 17 18  2  0
 18 19  1  0
 19 20  2  0
M  END
>  <original SMILES>  (800) 
NC(CO)Cc1cccc(NC(=O)Nc2cccnc2)c1

>  <AutoDock Predicted Affinity>  (800) 
-5.680657

>  <ref_pdb>  (800) 
x0434_0

>  <ref_mols>  (800) 
x0434_0

>  <creator>  (800) 
Will Poole

>  <energy minimised>  (800) 
True

$$$$
WPC2323_minimised.pdb
     RDKit          3D

 23 24  0  0  1  0  0  0  0  0999 V2000
   10.9350    5.0030   22.5630 N   0  0  0  0  0  0  0  0  0  0  0  0
   12.1670    5.0710   23.3850 C   0  0  2  0  0  0  0  0  0  0  0  0
   12.5700    3.6330   23.7550 C   0  0  0  0  0  0  0  0  0  0  0  0
   13.1990    2.6780   22.3190 S   0  0  0  0  0  0  0  0  0  0  0  0
   12.3410    1.1230   22.4640 C   0  0  0  0  0  0  0  0  0  0  0  0
   13.0610   -0.0680   22.6470 C   0  0  0  0  0  0  0  0  0  0  0  0
   12.3840   -1.3000   22.6950 C   0  0  0  0  0  0  0  0  0  0  0  0
   10.9870   -1.3400   22.5650 C   0  0  0  0  0  0  0  0  0  0  0  0
   10.2680   -0.1510   22.3730 C   0  0  0  0  0  0  0  0  0  0  0  0
    8.8770   -0.1920   22.1450 N   0  0  0  0  0  0  0  0  0  0  0  0
    8.3040    0.0720   20.9320 C   0  0  0  0  0  0  0  0  0  0  0  0
    8.9500    0.2840   19.9290 O   0  0  0  0  0  0  0  0  0  0  0  0
    6.9360    0.1020   20.9320 N   0  0  0  0  0  0  0  0  0  0  0  0
    6.1520    0.5510   19.8380 C   0  0  0  0  0  0  0  0  0  0  0  0
    5.1730    1.5270   20.0590 C   0  0  0  0  0  0  0  0  0  0  0  0
    4.5260    2.0670   18.9400 C   0  0  0  0  0  0  0  0  0  0  0  0
    4.8810    1.6300   17.6550 C   0  0  0  0  0  0  0  0  0  0  0  0
    5.7770    0.6430   17.4340 N   0  0  0  0  0  0  0  0  0  0  0  0
    6.4100    0.1340   18.5120 C   0  0  0  0  0  0  0  0  0  0  0  0
   10.9460    1.0790   22.3220 C   0  0  0  0  0  0  0  0  0  0  0  0
   11.9570    5.8970   24.6760 C   0  0  0  0  0  0  0  0  0  0  0  0
   10.9990    5.7390   25.4030 O   0  0  0  0  0  0  0  0  0  0  0  0
   12.7500    6.9750   24.8290 O   0  0  0  0  0  0  0  0  0  0  0  0
  2  1  1  1
  2 21  1  0
  2  3  1  0
  3  4  1  0
  4  5  1  0
  5 20  2  0
  5  6  1  0
  6  7  2  0
  7  8  1  0
  8  9  2  0
  9 10  1  0
  9 20  1  0
 10 11  1  0
 11 12  2  0
 11 13  1  0
 13 14  1  0
 14 15  2  0
 14 19  1  0
 15 16  1  0
 16 17  2  0
 17 18  1  0
 18 19  2  0
 21 22  2  0
 21 23  1  0
M  END
>  <original SMILES>  (801) 
NC(CSc1cccc(NC(=O)Nc2cccnc2)c1)C(=O)O

>  <AutoDock Predicted Affinity>  (801) 
-5.358205

>  <ref_pdb>  (801) 
x0434_0

>  <ref_mols>  (801) 
x0434_0

>  <creator>  (801) 
Will Poole

>  <energy minimised>  (801) 
True

$$$$
WPC1547_minimised.pdb
     RDKit          3D

 22 23  0  0  1  0  0  0  0  0999 V2000
   10.3220    5.5790   22.7790 N   0  0  0  0  0  0  0  0  0  0  0  0
   11.4420    5.0960   23.6350 C   0  0  1  0  0  0  0  0  0  0  0  0
   11.0360    3.8220   24.4090 C   0  0  0  0  0  0  0  0  0  0  0  0
   10.9550    2.5280   23.6090 C   0  0  0  0  0  0  0  0  0  0  0  0
   12.1180    1.8000   23.2860 C   0  0  0  0  0  0  0  0  0  0  0  0
   12.0260    0.5680   22.6160 C   0  0  0  0  0  0  0  0  0  0  0  0
   10.7680    0.0510   22.2700 C   0  0  0  0  0  0  0  0  0  0  0  0
    9.6080    0.7640   22.6040 C   0  0  0  0  0  0  0  0  0  0  0  0
    8.3370    0.2930   22.2180 N   0  0  0  0  0  0  0  0  0  0  0  0
    7.9080    0.2650   20.9230 C   0  0  0  0  0  0  0  0  0  0  0  0
    8.6420    0.4060   19.9680 O   0  0  0  0  0  0  0  0  0  0  0  0
    6.5500    0.1610   20.7980 N   0  0  0  0  0  0  0  0  0  0  0  0
    5.8460    0.6060   19.6560 C   0  0  0  0  0  0  0  0  0  0  0  0
    4.8630    1.5890   19.8220 C   0  0  0  0  0  0  0  0  0  0  0  0
    4.3210    2.1690   18.6690 C   0  0  0  0  0  0  0  0  0  0  0  0
    4.7850    1.7680   17.4100 C   0  0  0  0  0  0  0  0  0  0  0  0
    5.6890    0.7770   17.2370 N   0  0  0  0  0  0  0  0  0  0  0  0
    6.2170    0.2230   18.3480 C   0  0  0  0  0  0  0  0  0  0  0  0
    9.7010    1.9960   23.2670 C   0  0  0  0  0  0  0  0  0  0  0  0
   12.8150    4.9260   22.9350 C   0  0  0  0  0  0  0  0  0  0  0  0
   13.8540    4.6950   23.5260 O   0  0  0  0  0  0  0  0  0  0  0  0
   12.7700    5.0850   21.6060 O   0  0  0  0  0  0  0  0  0  0  0  0
  2  1  1  6
  2 20  1  0
  2  3  1  0
  3  4  1  0
  4 19  2  0
  4  5  1  0
  5  6  2  0
  6  7  1  0
  7  8  2  0
  8  9  1  0
  8 19  1  0
  9 10  1  0
 10 11  2  0
 10 12  1  0
 12 13  1  0
 13 14  2  0
 13 18  1  0
 14 15  1  0
 15 16  2  0
 16 17  1  0
 17 18  2  0
 20 21  2  0
 20 22  1  0
M  END
>  <original SMILES>  (802) 
NC(Cc1cccc(NC(=O)Nc2cccnc2)c1)C(=O)O

>  <AutoDock Predicted Affinity>  (802) 
-5.820244

>  <ref_pdb>  (802) 
x0434_0

>  <ref_mols>  (802) 
x0434_0

>  <creator>  (802) 
Will Poole

>  <energy minimised>  (802) 
True

$$$$
WPC1141_minimised.pdb
     RDKit          3D

 24 25  0  0  1  0  0  0  0  0999 V2000
    9.8300    3.0970   23.9960 N   0  0  0  0  0  0  0  0  0  0  0  0
   11.1720    2.6430   24.3720 C   0  0  1  0  0  0  0  0  0  0  0  0
   11.1440    1.1390   24.7450 C   0  0  0  0  0  0  0  0  0  0  0  0
   10.7530    0.2240   23.6050 C   0  0  0  0  0  0  0  0  0  0  0  0
   11.7430   -0.4250   22.8470 C   0  0  0  0  0  0  0  0  0  0  0  0
   11.3830   -1.3090   21.8230 C   0  0  0  0  0  0  0  0  0  0  0  0
   10.0280   -1.4980   21.5220 C   0  0  0  0  0  0  0  0  0  0  0  0
    9.0460   -0.7910   22.2240 C   0  0  0  0  0  0  0  0  0  0  0  0
    7.7280   -0.7550   21.7430 N   0  0  0  0  0  0  0  0  0  0  0  0
    7.4200   -0.2550   20.5100 C   0  0  0  0  0  0  0  0  0  0  0  0
    8.2420    0.0160   19.6540 O   0  0  0  0  0  0  0  0  0  0  0  0
    6.0820   -0.0330   20.3520 N   0  0  0  0  0  0  0  0  0  0  0  0
    5.5040    0.6510   19.2600 C   0  0  0  0  0  0  0  0  0  0  0  0
    4.5460    1.6430   19.4980 C   0  0  0  0  0  0  0  0  0  0  0  0
    4.0950    2.3850   18.3990 C   0  0  0  0  0  0  0  0  0  0  0  0
    4.6320    2.1370   17.1280 C   0  0  0  0  0  0  0  0  0  0  0  0
    5.5270    1.1530   16.8860 N   0  0  0  0  0  0  0  0  0  0  0  0
    5.9500    0.4330   17.9400 C   0  0  0  0  0  0  0  0  0  0  0  0
    9.4000    0.0330   23.2940 C   0  0  0  0  0  0  0  0  0  0  0  0
   12.1740    3.0020   23.2500 C   0  0  2  0  0  0  0  0  0  0  0  0
   13.4000    2.2470   23.3730 O   0  0  0  0  0  0  0  0  0  0  0  0
   12.4510    4.5170   23.2880 C   0  0  0  0  0  0  0  0  0  0  0  0
   13.1380    5.0450   24.1420 O   0  0  0  0  0  0  0  0  0  0  0  0
   12.0540    5.2180   22.2110 O   0  0  0  0  0  0  0  0  0  0  0  0
  2  1  1  6
  2 20  1  0
  2  3  1  0
  3  4  1  0
  4 19  2  0
  4  5  1  0
  5  6  2  0
  6  7  1  0
  7  8  2  0
  8  9  1  0
  8 19  1  0
  9 10  1  0
 10 11  2  0
 10 12  1  0
 12 13  1  0
 13 14  2  0
 13 18  1  0
 14 15  1  0
 15 16  2  0
 16 17  1  0
 17 18  2  0
 20 22  1  0
 20 21  1  1
 22 23  2  0
 22 24  1  0
M  END
>  <original SMILES>  (803) 
NC(Cc1cccc(NC(=O)Nc2cccnc2)c1)C(O)C(=O)O

>  <AutoDock Predicted Affinity>  (803) 
-6.08555

>  <ref_pdb>  (803) 
x0434_0

>  <ref_mols>  (803) 
x0434_0

>  <creator>  (803) 
Will Poole

>  <energy minimised>  (803) 
True

$$$$
WPC2536_minimised.pdb
     RDKit          3D

 22 23  0  0  1  0  0  0  0  0999 V2000
    9.8780    4.8060   23.2740 N   0  0  0  0  0  0  0  0  0  0  0  0
   10.9700    4.4310   24.1840 C   0  0  1  0  0  0  0  0  0  0  0  0
   10.8300    2.9790   24.6810 C   0  0  0  0  0  0  0  0  0  0  0  0
   10.8370    1.8760   23.6380 C   0  0  0  0  0  0  0  0  0  0  0  0
   12.0410    1.3120   23.1770 C   0  0  0  0  0  0  0  0  0  0  0  0
   12.0180    0.2180   22.2960 C   0  0  0  0  0  0  0  0  0  0  0  0
   10.7880   -0.3220   21.8820 C   0  0  0  0  0  0  0  0  0  0  0  0
    9.5890    0.2360   22.3510 C   0  0  0  0  0  0  0  0  0  0  0  0
    8.3350   -0.2410   21.9290 N   0  0  0  0  0  0  0  0  0  0  0  0
    7.8770   -0.1180   20.6510 C   0  0  0  0  0  0  0  0  0  0  0  0
    8.5910    0.0950   19.6920 O   0  0  0  0  0  0  0  0  0  0  0  0
    6.5140   -0.1570   20.5670 N   0  0  0  0  0  0  0  0  0  0  0  0
    5.7920    0.4120   19.4930 C   0  0  0  0  0  0  0  0  0  0  0  0
    4.8420    1.4020   19.7700 C   0  0  0  0  0  0  0  0  0  0  0  0
    4.2740    2.0820   18.6860 C   0  0  0  0  0  0  0  0  0  0  0  0
    4.6860    1.7710   17.3820 C   0  0  0  0  0  0  0  0  0  0  0  0
    5.5700    0.7850   17.1050 N   0  0  0  0  0  0  0  0  0  0  0  0
    6.1150    0.1310   18.1490 C   0  0  0  0  0  0  0  0  0  0  0  0
    9.6150    1.3310   23.2210 C   0  0  0  0  0  0  0  0  0  0  0  0
   12.6510    4.8000   23.4440 P   0  0  0  0  0  0  0  0  0  0  0  0
   12.3750    5.0860   21.8250 O   0  0  0  0  0  0  0  0  0  0  0  0
   12.8360    6.3700   23.9790 O   0  0  0  0  0  0  0  0  0  0  0  0
  2  1  1  6
  2 20  1  0
  2  3  1  0
  3  4  1  0
  4 19  2  0
  4  5  1  0
  5  6  2  0
  6  7  1  0
  7  8  2  0
  8  9  1  0
  8 19  1  0
  9 10  1  0
 10 11  2  0
 10 12  1  0
 12 13  1  0
 13 14  2  0
 13 18  1  0
 14 15  1  0
 15 16  2  0
 16 17  1  0
 17 18  2  0
 20 21  1  0
 20 22  1  0
M  END
>  <original SMILES>  (804) 
NC(Cc1cccc(NC(=O)Nc2cccnc2)c1)P(O)O

>  <AutoDock Predicted Affinity>  (804) 
-6.06839

>  <ref_pdb>  (804) 
x0434_0

>  <ref_mols>  (804) 
x0434_0

>  <creator>  (804) 
Will Poole

>  <energy minimised>  (804) 
True

$$$$
WPC2116_minimised.pdb
     RDKit          3D

 24 25  0  0  1  0  0  0  0  0999 V2000
    8.5410    5.7890   21.6300 N   0  0  0  0  0  0  0  0  0  0  0  0
    8.3670    4.7850   22.3330 C   0  0  0  0  0  0  0  0  0  0  0  0
    7.3020    4.0170   22.1290 N   0  0  0  0  0  0  0  0  0  0  0  0
    9.3780    3.9680   22.4510 N   0  0  0  0  0  0  0  0  0  0  0  0
   10.4800    4.3940   23.5660 S   0  0  0  0  0  0  0  0  0  0  0  0
   11.6600    4.7430   22.8200 O   0  0  0  0  0  0  0  0  0  0  0  0
    9.9010    5.3420   24.4900 O   0  0  0  0  0  0  0  0  0  0  0  0
   10.8220    2.8970   24.4760 C   0  0  0  0  0  0  0  0  0  0  0  0
   10.9200    1.6320   23.6460 C   0  0  0  0  0  0  0  0  0  0  0  0
   12.1570    1.1470   23.1860 C   0  0  0  0  0  0  0  0  0  0  0  0
   12.2030    0.0070   22.3630 C   0  0  0  0  0  0  0  0  0  0  0  0
   11.0110   -0.6360   21.9840 C   0  0  0  0  0  0  0  0  0  0  0  0
    9.7810   -0.1490   22.4510 C   0  0  0  0  0  0  0  0  0  0  0  0
    8.5550   -0.6440   21.9680 N   0  0  0  0  0  0  0  0  0  0  0  0
    8.0850   -0.3170   20.7280 C   0  0  0  0  0  0  0  0  0  0  0  0
    8.7900    0.0580   19.8130 O   0  0  0  0  0  0  0  0  0  0  0  0
    6.7210   -0.3500   20.6360 N   0  0  0  0  0  0  0  0  0  0  0  0
    5.9970    0.2870   19.6000 C   0  0  0  0  0  0  0  0  0  0  0  0
    5.0700    1.2860   19.9250 C   0  0  0  0  0  0  0  0  0  0  0  0
    4.4960    2.0110   18.8720 C   0  0  0  0  0  0  0  0  0  0  0  0
    4.8800    1.7360   17.5510 C   0  0  0  0  0  0  0  0  0  0  0  0
    5.7440    0.7490   17.2280 N   0  0  0  0  0  0  0  0  0  0  0  0
    6.2950    0.0500   18.2410 C   0  0  0  0  0  0  0  0  0  0  0  0
    9.7400    0.9620   23.2990 C   0  0  0  0  0  0  0  0  0  0  0  0
  2  1  1  0
  2  3  1  0
  2  4  1  0
  4  5  1  0
  5  6  2  0
  5  7  2  0
  5  8  1  0
  8  9  1  0
  9 24  2  0
  9 10  1  0
 10 11  2  0
 11 12  1  0
 12 13  2  0
 13 14  1  0
 13 24  1  0
 14 15  1  0
 15 16  2  0
 15 17  1  0
 17 18  1  0
 18 19  2  0
 18 23  1  0
 19 20  1  0
 20 21  2  0
 21 22  1  0
 22 23  2  0
M  END
>  <original SMILES>  (805) 
NC(N)NS(=O)(=O)Cc1cccc(NC(=O)Nc2cccnc2)c1

>  <AutoDock Predicted Affinity>  (805) 
-6.401272

>  <ref_pdb>  (805) 
x0434_0

>  <ref_mols>  (805) 
x0434_0

>  <creator>  (805) 
Will Poole

>  <energy minimised>  (805) 
True

$$$$
WPC2469_minimised.pdb
     RDKit          3D

 24 26  0  0  1  0  0  0  0  0999 V2000
    8.3370    3.1920   21.9660 N   0  0  0  0  0  0  0  0  0  0  0  0
    9.0900    3.2150   23.0780 C   0  0  0  0  0  0  0  0  0  0  0  0
    9.1450    2.3350   23.9910 N   0  0  0  0  0  0  0  0  0  0  0  0
   10.3940    2.6290   24.7510 C   0  0  1  0  0  0  0  0  0  0  0  0
   11.2890    1.3790   24.9380 C   0  0  0  0  0  0  0  0  0  0  0  0
   11.5550    0.5530   23.6970 C   0  0  0  0  0  0  0  0  0  0  0  0
   12.8290    0.5140   23.1010 C   0  0  0  0  0  0  0  0  0  0  0  0
   13.0390   -0.2590   21.9490 C   0  0  0  0  0  0  0  0  0  0  0  0
   11.9600   -0.9330   21.3530 C   0  0  0  0  0  0  0  0  0  0  0  0
   10.6860   -0.8610   21.9340 C   0  0  0  0  0  0  0  0  0  0  0  0
    9.5240   -1.2550   21.2470 N   0  0  0  0  0  0  0  0  0  0  0  0
    8.6990   -0.3380   20.6490 C   0  0  0  0  0  0  0  0  0  0  0  0
    8.9780    0.8410   20.5350 O   0  0  0  0  0  0  0  0  0  0  0  0
    7.5210   -0.8430   20.1810 N   0  0  0  0  0  0  0  0  0  0  0  0
    6.5850   -0.1070   19.4150 C   0  0  0  0  0  0  0  0  0  0  0  0
    5.9220    0.9990   19.9690 C   0  0  0  0  0  0  0  0  0  0  0  0
    5.0700    1.7400   19.1360 C   0  0  0  0  0  0  0  0  0  0  0  0
    4.9400    1.3800   17.7850 C   0  0  0  0  0  0  0  0  0  0  0  0
    5.5620    0.3030   17.2560 N   0  0  0  0  0  0  0  0  0  0  0  0
    6.3640   -0.4180   18.0620 C   0  0  0  0  0  0  0  0  0  0  0  0
   10.5040   -0.1730   23.1320 C   0  0  0  0  0  0  0  0  0  0  0  0
   11.0530    3.7430   23.9320 C   0  0  0  0  0  0  0  0  0  0  0  0
   12.1410    4.2640   24.0940 O   0  0  0  0  0  0  0  0  0  0  0  0
   10.1590    4.0490   22.9680 N   0  0  0  0  0  0  0  0  0  0  0  0
  1  2  1  0
  2  3  2  0
  2 24  1  0
  3  4  1  0
  4 22  1  0
  4  5  1  6
  5  6  1  0
  6 21  1  0
  6  7  2  0
  7  8  1  0
  8  9  2  0
  9 10  1  0
 10 11  1  0
 10 21  2  0
 11 12  1  0
 12 13  2  0
 12 14  1  0
 14 15  1  0
 15 16  2  0
 15 20  1  0
 16 17  1  0
 17 18  2  0
 18 19  1  0
 19 20  2  0
 22 24  1  0
 22 23  2  0
M  END
>  <original SMILES>  (806) 
NC1=NC(Cc2cccc(NC(=O)Nc3cccnc3)c2)C(=O)N1

>  <AutoDock Predicted Affinity>  (806) 
-7.07734

>  <ref_pdb>  (806) 
x0434_0

>  <ref_mols>  (806) 
x0434_0

>  <creator>  (806) 
Will Poole

>  <energy minimised>  (806) 
True

$$$$
WPC1912_minimised.pdb
     RDKit          3D

 24 26  0  0  1  0  0  0  0  0999 V2000
   13.9130    4.5140   23.6870 N   0  0  0  0  0  0  0  0  0  0  0  0
   12.6000    4.5370   23.3170 C   0  0  0  0  0  0  0  0  0  0  0  0
   12.2350    5.1380   22.2590 N   0  0  0  0  0  0  0  0  0  0  0  0
   10.8910    5.3590   22.3690 N   0  0  0  0  0  0  0  0  0  0  0  0
   10.3770    4.9570   23.5640 C   0  0  0  0  0  0  0  0  0  0  0  0
    9.2160    5.0400   23.9110 O   0  0  0  0  0  0  0  0  0  0  0  0
   11.5230    4.3810   24.3530 C   0  0  1  0  0  0  0  0  0  0  0  0
   11.2160    2.9330   24.8070 C   0  0  0  0  0  0  0  0  0  0  0  0
   11.0060    1.9090   23.7070 C   0  0  0  0  0  0  0  0  0  0  0  0
   12.0960    1.1970   23.1740 C   0  0  0  0  0  0  0  0  0  0  0  0
   11.8830    0.1750   22.2350 C   0  0  0  0  0  0  0  0  0  0  0  0
   10.5750   -0.1430   21.8350 C   0  0  0  0  0  0  0  0  0  0  0  0
    9.4860    0.5660   22.3690 C   0  0  0  0  0  0  0  0  0  0  0  0
    8.1630    0.2850   21.9770 N   0  0  0  0  0  0  0  0  0  0  0  0
    7.7090    0.2990   20.6910 C   0  0  0  0  0  0  0  0  0  0  0  0
    8.4300    0.3380   19.7150 O   0  0  0  0  0  0  0  0  0  0  0  0
    6.3460    0.3300   20.6070 N   0  0  0  0  0  0  0  0  0  0  0  0
    5.6300    0.7750   19.4730 C   0  0  0  0  0  0  0  0  0  0  0  0
    4.6470    1.7560   19.6510 C   0  0  0  0  0  0  0  0  0  0  0  0
    4.0690    2.3110   18.5050 C   0  0  0  0  0  0  0  0  0  0  0  0
    4.5020    1.8920   17.2400 C   0  0  0  0  0  0  0  0  0  0  0  0
    5.4110    0.9060   17.0570 N   0  0  0  0  0  0  0  0  0  0  0  0
    5.9680    0.3720   18.1630 C   0  0  0  0  0  0  0  0  0  0  0  0
    9.7030    1.5890   23.2990 C   0  0  0  0  0  0  0  0  0  0  0  0
  1  2  1  0
  2  3  2  0
  2  7  1  0
  3  4  1  0
  4  5  1  0
  5  6  2  0
  5  7  1  0
  7  8  1  6
  8  9  1  0
  9 24  1  0
  9 10  2  0
 10 11  1  0
 11 12  2  0
 12 13  1  0
 13 14  1  0
 13 24  2  0
 14 15  1  0
 15 16  2  0
 15 17  1  0
 17 18  1  0
 18 19  2  0
 18 23  1  0
 19 20  1  0
 20 21  2  0
 21 22  1  0
 22 23  2  0
M  END
>  <original SMILES>  (807) 
NC1=NNC(=O)C1Cc1cccc(NC(=O)Nc2cccnc2)c1

>  <AutoDock Predicted Affinity>  (807) 
-6.53661

>  <ref_pdb>  (807) 
x0434_0

>  <ref_mols>  (807) 
x0434_0

>  <creator>  (807) 
Will Poole

>  <energy minimised>  (807) 
True

$$$$
WPC1292_minimised.pdb
     RDKit          3D

 24 26  0  0  1  0  0  0  0  0999 V2000
   12.2260    4.9840   21.4450 N   0  0  0  0  0  0  0  0  0  0  0  0
   11.9270    4.1890   22.3810 C   0  0  0  0  0  0  0  0  0  0  0  0
   10.6370    3.7410   22.5530 N   0  0  0  0  0  0  0  0  0  0  0  0
   10.3190    2.9800   23.6300 C   0  0  0  0  0  0  0  0  0  0  0  0
    9.1940    2.5730   23.8380 O   0  0  0  0  0  0  0  0  0  0  0  0
   11.5210    2.7500   24.5350 C   0  0  1  0  0  0  0  0  0  0  0  0
   11.8240    1.2670   24.8440 C   0  0  0  0  0  0  0  0  0  0  0  0
   11.8990    0.4070   23.6070 C   0  0  0  0  0  0  0  0  0  0  0  0
   13.1250    0.1640   22.9630 C   0  0  0  0  0  0  0  0  0  0  0  0
   13.1620   -0.6340   21.8110 C   0  0  0  0  0  0  0  0  0  0  0  0
   11.9680   -1.1390   21.2770 C   0  0  0  0  0  0  0  0  0  0  0  0
   10.7440   -0.8690   21.9070 C   0  0  0  0  0  0  0  0  0  0  0  0
    9.5130   -1.1980   21.3150 N   0  0  0  0  0  0  0  0  0  0  0  0
    8.7060   -0.2680   20.7170 C   0  0  0  0  0  0  0  0  0  0  0  0
    9.0330    0.8900   20.5400 O   0  0  0  0  0  0  0  0  0  0  0  0
    7.5020   -0.7670   20.3040 N   0  0  0  0  0  0  0  0  0  0  0  0
    6.5770   -0.0610   19.4990 C   0  0  0  0  0  0  0  0  0  0  0  0
    5.8710    1.0340   20.0170 C   0  0  0  0  0  0  0  0  0  0  0  0
    5.0210    1.7360   19.1500 C   0  0  0  0  0  0  0  0  0  0  0  0
    4.9350    1.3510   17.8020 C   0  0  0  0  0  0  0  0  0  0  0  0
    5.6020    0.2850   17.3050 N   0  0  0  0  0  0  0  0  0  0  0  0
    6.4080   -0.3950   18.1430 C   0  0  0  0  0  0  0  0  0  0  0  0
   10.7160   -0.1260   23.0860 C   0  0  0  0  0  0  0  0  0  0  0  0
   12.9100    3.5500   23.6340 S   0  0  0  0  0  0  0  0  0  0  0  0
  1  2  1  0
  2  3  1  0
  2 24  2  0
  3  4  1  0
  4  5  2  0
  4  6  1  0
  6 24  1  0
  6  7  1  6
  7  8  1  0
  8 23  1  0
  8  9  2  0
  9 10  1  0
 10 11  2  0
 11 12  1  0
 12 13  1  0
 12 23  2  0
 13 14  1  0
 14 15  2  0
 14 16  1  0
 16 17  1  0
 17 18  2  0
 17 22  1  0
 18 19  1  0
 19 20  2  0
 20 21  1  0
 21 22  2  0
M  END
>  <original SMILES>  (808) 
NC1=[SH]C(Cc2cccc(NC(=O)Nc3cccnc3)c2)C(=O)N1

>  <AutoDock Predicted Affinity>  (808) 
-6.90765

>  <ref_pdb>  (808) 
x0434_0

>  <ref_mols>  (808) 
x0434_0

>  <creator>  (808) 
Will Poole

>  <energy minimised>  (808) 
True

$$$$
WPC2351_minimised.pdb
     RDKit          3D

 24 26  0  0  0  0  0  0  0  0999 V2000
   11.2720    5.9400   25.0950 N   0  0  0  0  0  0  0  0  0  0  0  0
   11.0130    5.7030   23.6800 C   0  0  0  0  0  0  0  0  0  0  0  0
   12.2640    5.0620   23.0390 C   0  0  0  0  0  0  0  0  0  0  0  0
   12.5490    3.6300   23.5590 C   0  0  0  0  0  0  0  0  0  0  0  0
   11.4040    3.0430   24.2890 N   0  0  0  0  0  0  0  0  0  0  0  0
   11.6160    1.6490   24.7350 C   0  0  0  0  0  0  0  0  0  0  0  0
   11.3730    0.6090   23.6570 C   0  0  0  0  0  0  0  0  0  0  0  0
   12.4310    0.1030   22.8810 C   0  0  0  0  0  0  0  0  0  0  0  0
   12.1760   -0.8640   21.8960 C   0  0  0  0  0  0  0  0  0  0  0  0
   10.8540   -1.2740   21.6520 C   0  0  0  0  0  0  0  0  0  0  0  0
    9.7940   -0.7220   22.3820 C   0  0  0  0  0  0  0  0  0  0  0  0
    8.4540   -0.9220   21.9920 N   0  0  0  0  0  0  0  0  0  0  0  0
    7.9660   -0.5070   20.7820 C   0  0  0  0  0  0  0  0  0  0  0  0
    8.6680   -0.2040   19.8370 O   0  0  0  0  0  0  0  0  0  0  0  0
    6.6030   -0.4000   20.7340 N   0  0  0  0  0  0  0  0  0  0  0  0
    5.8990    0.2360   19.6810 C   0  0  0  0  0  0  0  0  0  0  0  0
    4.9810    1.2500   19.9820 C   0  0  0  0  0  0  0  0  0  0  0  0
    4.4130    1.9560   18.9120 C   0  0  0  0  0  0  0  0  0  0  0  0
    4.7850    1.6390   17.5960 C   0  0  0  0  0  0  0  0  0  0  0  0
    5.6380    0.6350   17.2960 N   0  0  0  0  0  0  0  0  0  0  0  0
    6.1910   -0.0370   18.3260 C   0  0  0  0  0  0  0  0  0  0  0  0
   10.0600    0.1720   23.4180 C   0  0  0  0  0  0  0  0  0  0  0  0
   10.1040    3.2940   23.6290 C   0  0  0  0  0  0  0  0  0  0  0  0
    9.7800    4.7990   23.5220 C   0  0  0  0  0  0  0  0  0  0  0  0
  1  2  1  0
  2  3  1  0
  2 24  1  0
  3  4  1  0
  4  5  1  0
  5 23  1  0
  5  6  1  0
  6  7  1  0
  7 22  1  0
  7  8  2  0
  8  9  1  0
  9 10  2  0
 10 11  1  0
 11 12  1  0
 11 22  2  0
 12 13  1  0
 13 14  2  0
 13 15  1  0
 15 16  1  0
 16 17  2  0
 16 21  1  0
 17 18  1  0
 18 19  2  0
 19 20  1  0
 20 21  2  0
 23 24  1  0
M  END
>  <original SMILES>  (809) 
NC1CCN(Cc2cccc(NC(=O)Nc3cccnc3)c2)CC1

>  <AutoDock Predicted Affinity>  (809) 
-6.67908

>  <ref_pdb>  (809) 
x0434_0

>  <ref_mols>  (809) 
x0434_0

>  <creator>  (809) 
Will Poole

>  <energy minimised>  (809) 
True

$$$$
WPC2468_minimised.pdb
     RDKit          3D

 24 26  0  0  1  0  0  0  0  0999 V2000
   12.6910    5.0110   21.8800 N   0  0  0  0  0  0  0  0  0  0  0  0
   11.9330    5.0190   22.9900 C   0  0  2  0  0  0  0  0  0  0  0  0
   12.1800    4.3660   24.0500 N   0  0  0  0  0  0  0  0  0  0  0  0
   10.8500    4.0790   24.6560 C   0  0  2  0  0  0  0  0  0  0  0  0
   10.7130    2.5790   24.9940 C   0  0  0  0  0  0  0  0  0  0  0  0
   10.7420    1.6080   23.8280 C   0  0  0  0  0  0  0  0  0  0  0  0
   11.9580    1.1400   23.2980 C   0  0  0  0  0  0  0  0  0  0  0  0
   11.9580    0.1550   22.2960 C   0  0  0  0  0  0  0  0  0  0  0  0
   10.7400   -0.3580   21.8190 C   0  0  0  0  0  0  0  0  0  0  0  0
    9.5280    0.1210   22.3410 C   0  0  0  0  0  0  0  0  0  0  0  0
    8.2820   -0.3080   21.8490 N   0  0  0  0  0  0  0  0  0  0  0  0
    7.8580   -0.1010   20.5710 C   0  0  0  0  0  0  0  0  0  0  0  0
    8.5920    0.1370   19.6330 O   0  0  0  0  0  0  0  0  0  0  0  0
    6.4970   -0.0970   20.4640 N   0  0  0  0  0  0  0  0  0  0  0  0
    5.7990    0.5050   19.3940 C   0  0  0  0  0  0  0  0  0  0  0  0
    4.8570    1.5030   19.6740 C   0  0  0  0  0  0  0  0  0  0  0  0
    4.3030    2.1960   18.5910 C   0  0  0  0  0  0  0  0  0  0  0  0
    4.7210    1.8940   17.2880 C   0  0  0  0  0  0  0  0  0  0  0  0
    5.6010    0.9060   17.0090 N   0  0  0  0  0  0  0  0  0  0  0  0
    6.1310    0.2350   18.0510 C   0  0  0  0  0  0  0  0  0  0  0  0
    9.5320    1.0970   23.3410 C   0  0  0  0  0  0  0  0  0  0  0  0
    9.8650    4.5640   23.5920 C   0  0  0  0  0  0  0  0  0  0  0  0
    8.6630    4.4040   23.5190 O   0  0  0  0  0  0  0  0  0  0  0  0
   10.6210    5.1860   22.6710 N   0  0  0  0  0  0  0  0  0  0  0  0
  2  1  1  6
  2  3  1  0
  2 24  1  0
  3  4  1  0
  4 22  1  0
  4  5  1  6
  5  6  1  0
  6 21  1  0
  6  7  2  0
  7  8  1  0
  8  9  2  0
  9 10  1  0
 10 11  1  0
 10 21  2  0
 11 12  1  0
 12 13  2  0
 12 14  1  0
 14 15  1  0
 15 16  2  0
 15 20  1  0
 16 17  1  0
 17 18  2  0
 18 19  1  0
 19 20  2  0
 22 24  1  0
 22 23  2  0
M  END
>  <original SMILES>  (810) 
NC1NC(=O)C(Cc2cccc(NC(=O)Nc3cccnc3)c2)N1

>  <AutoDock Predicted Affinity>  (810) 
-6.63242

>  <ref_pdb>  (810) 
x0434_0

>  <ref_mols>  (810) 
x0434_0

>  <creator>  (810) 
Will Poole

>  <energy minimised>  (810) 
True

$$$$
WPC1293_minimised.pdb
     RDKit          3D

 24 26  0  0  1  0  0  0  0  0999 V2000
   13.0080    5.0630   21.3400 N   0  0  0  0  0  0  0  0  0  0  0  0
   12.3830    5.0540   22.5260 C   0  0  1  0  0  0  0  0  0  0  0  0
   11.1560    5.3610   22.6360 N   0  0  0  0  0  0  0  0  0  0  0  0
   10.5160    4.7900   23.7210 C   0  0  0  0  0  0  0  0  0  0  0  0
    9.3530    4.9690   24.0170 O   0  0  0  0  0  0  0  0  0  0  0  0
   11.4840    3.9570   24.5610 C   0  0  1  0  0  0  0  0  0  0  0  0
   10.9770    2.5420   24.9320 C   0  0  0  0  0  0  0  0  0  0  0  0
   10.8320    1.5480   23.7910 C   0  0  0  0  0  0  0  0  0  0  0  0
   11.9460    0.8420   23.2970 C   0  0  0  0  0  0  0  0  0  0  0  0
   11.7820   -0.1450   22.3110 C   0  0  0  0  0  0  0  0  0  0  0  0
   10.4980   -0.4450   21.8320 C   0  0  0  0  0  0  0  0  0  0  0  0
    9.3850    0.2480   22.3330 C   0  0  0  0  0  0  0  0  0  0  0  0
    8.0860   -0.0120   21.8590 N   0  0  0  0  0  0  0  0  0  0  0  0
    7.7020    0.1050   20.5570 C   0  0  0  0  0  0  0  0  0  0  0  0
    8.4710    0.1990   19.6210 O   0  0  0  0  0  0  0  0  0  0  0  0
    6.3460    0.1790   20.4190 N   0  0  0  0  0  0  0  0  0  0  0  0
    5.6840    0.7280   19.3000 C   0  0  0  0  0  0  0  0  0  0  0  0
    4.6970    1.6970   19.5150 C   0  0  0  0  0  0  0  0  0  0  0  0
    4.1730    2.3510   18.3940 C   0  0  0  0  0  0  0  0  0  0  0  0
    4.6700    2.0460   17.1210 C   0  0  0  0  0  0  0  0  0  0  0  0
    5.5860    1.0760   16.8990 N   0  0  0  0  0  0  0  0  0  0  0  0
    6.0810    0.4380   17.9780 C   0  0  0  0  0  0  0  0  0  0  0  0
    9.5530    1.2450   23.3020 C   0  0  0  0  0  0  0  0  0  0  0  0
   13.0550    3.9360   23.6130 S   0  0  0  0  0  0  0  0  0  0  0  0
  2  1  1  6
  2  3  1  0
  2 24  1  0
  3  4  1  0
  4  5  2  0
  4  6  1  0
  6 24  1  0
  6  7  1  6
  7  8  1  0
  8 23  1  0
  8  9  2  0
  9 10  1  0
 10 11  2  0
 11 12  1  0
 12 13  1  0
 12 23  2  0
 13 14  1  0
 14 15  2  0
 14 16  1  0
 16 17  1  0
 17 18  2  0
 17 22  1  0
 18 19  1  0
 19 20  2  0
 20 21  1  0
 21 22  2  0
M  END
>  <original SMILES>  (811) 
NC1NC(=O)C(Cc2cccc(NC(=O)Nc3cccnc3)c2)S1

>  <AutoDock Predicted Affinity>  (811) 
-6.23797

>  <ref_pdb>  (811) 
x0434_0

>  <ref_mols>  (811) 
x0434_0

>  <creator>  (811) 
Will Poole

>  <energy minimised>  (811) 
True

$$$$
WPC2216_minimised.pdb
     RDKit          3D

 24 26  0  0  1  0  0  0  0  0999 V2000
   14.5120    5.7410   22.1680 N   0  0  0  0  0  0  0  0  0  0  0  0
   13.3140    5.4570   22.6960 C   0  0  1  0  0  0  0  0  0  0  0  0
   12.3420    4.9430   22.0790 N   0  0  0  0  0  0  0  0  0  0  0  0
   11.3050    4.6330   23.0680 C   0  0  1  0  0  0  0  0  0  0  0  0
   11.2900    3.0990   23.2170 C   0  0  0  0  0  0  0  0  0  0  0  0
   10.4130    2.5170   24.7250 S   0  0  0  0  0  0  0  0  0  0  0  0
   10.0230    0.8550   24.2430 C   0  0  0  0  0  0  0  0  0  0  0  0
   10.7320   -0.2490   24.7400 C   0  0  0  0  0  0  0  0  0  0  0  0
   10.4120   -1.5480   24.2960 C   0  0  0  0  0  0  0  0  0  0  0  0
    9.3640   -1.7390   23.3840 C   0  0  0  0  0  0  0  0  0  0  0  0
    8.6550   -0.6320   22.9040 C   0  0  0  0  0  0  0  0  0  0  0  0
    7.5510   -0.8000   22.0590 N   0  0  0  0  0  0  0  0  0  0  0  0
    7.4190   -0.2460   20.8210 C   0  0  0  0  0  0  0  0  0  0  0  0
    8.3270    0.2050   20.1480 O   0  0  0  0  0  0  0  0  0  0  0  0
    6.1050   -0.2080   20.4550 N   0  0  0  0  0  0  0  0  0  0  0  0
    5.5870    0.4890   19.3460 C   0  0  0  0  0  0  0  0  0  0  0  0
    4.5880    1.4480   19.5490 C   0  0  0  0  0  0  0  0  0  0  0  0
    4.1650    2.1860   18.4380 C   0  0  0  0  0  0  0  0  0  0  0  0
    4.7470    1.9470   17.1860 C   0  0  0  0  0  0  0  0  0  0  0  0
    5.6900    0.9980   16.9790 N   0  0  0  0  0  0  0  0  0  0  0  0
    6.1130    0.3020   18.0520 C   0  0  0  0  0  0  0  0  0  0  0  0
    8.9880    0.6610   23.3230 C   0  0  0  0  0  0  0  0  0  0  0  0
   11.7960    5.4040   24.3100 C   0  0  0  0  0  0  0  0  0  0  0  0
   13.1860    5.5990   24.0260 O   0  0  0  0  0  0  0  0  0  0  0  0
  2  1  1  1
  2  3  1  0
  2 24  1  0
  3  4  1  0
  4 23  1  0
  4  5  1  1
  5  6  1  0
  6  7  1  0
  7 22  1  0
  7  8  2  0
  8  9  1  0
  9 10  2  0
 10 11  1  0
 11 12  1  0
 11 22  2  0
 12 13  1  0
 13 14  2  0
 13 15  1  0
 15 16  1  0
 16 17  2  0
 16 21  1  0
 17 18  1  0
 18 19  2  0
 19 20  1  0
 20 21  2  0
 23 24  1  0
M  END
>  <original SMILES>  (812) 
NC1NC(CSc2cccc(NC(=O)Nc3cccnc3)c2)CO1

>  <AutoDock Predicted Affinity>  (812) 
-5.976018

>  <ref_pdb>  (812) 
x0434_0

>  <ref_mols>  (812) 
x0434_0

>  <creator>  (812) 
Will Poole

>  <energy minimised>  (812) 
True

$$$$
WPC1071_minimised.pdb
     RDKit          3D

 24 26  0  0  1  0  0  0  0  0999 V2000
   14.1590    4.6170   23.1320 N   0  0  0  0  0  0  0  0  0  0  0  0
   12.7910    4.6580   23.0720 C   0  0  2  0  0  0  0  0  0  0  0  0
   12.3940    6.0360   24.0210 S   0  0  0  0  0  0  0  0  0  0  0  0
   10.8170    5.2750   24.5550 C   0  0  0  0  0  0  0  0  0  0  0  0
   11.0400    3.7790   24.3920 C   0  0  0  0  0  0  0  0  0  0  0  0
   10.3920    2.9290   24.9870 O   0  0  0  0  0  0  0  0  0  0  0  0
   12.1310    3.5180   23.5820 N   0  0  0  0  0  0  0  0  0  0  0  0
   12.7130    2.1550   23.5360 C   0  0  0  0  0  0  0  0  0  0  0  0
   12.0360    1.0640   22.7160 C   0  0  0  0  0  0  0  0  0  0  0  0
   12.8380    0.0140   22.2330 C   0  0  0  0  0  0  0  0  0  0  0  0
   12.2550   -1.1060   21.6250 C   0  0  0  0  0  0  0  0  0  0  0  0
   10.8600   -1.1860   21.5030 C   0  0  0  0  0  0  0  0  0  0  0  0
   10.0560   -0.1280   21.9460 C   0  0  0  0  0  0  0  0  0  0  0  0
    8.6570   -0.1770   21.7880 N   0  0  0  0  0  0  0  0  0  0  0  0
    8.0120   -0.1590   20.5840 C   0  0  0  0  0  0  0  0  0  0  0  0
    8.5730   -0.2580   19.5120 O   0  0  0  0  0  0  0  0  0  0  0  0
    6.6630    0.0430   20.6810 N   0  0  0  0  0  0  0  0  0  0  0  0
    5.8500    0.5200   19.6250 C   0  0  0  0  0  0  0  0  0  0  0  0
    4.9380    1.5470   19.8980 C   0  0  0  0  0  0  0  0  0  0  0  0
    4.2650    2.1270   18.8150 C   0  0  0  0  0  0  0  0  0  0  0  0
    4.5410    1.6860   17.5120 C   0  0  0  0  0  0  0  0  0  0  0  0
    5.3680    0.6520   17.2450 N   0  0  0  0  0  0  0  0  0  0  0  0
    6.0130    0.0910   18.2880 C   0  0  0  0  0  0  0  0  0  0  0  0
   10.6410    0.9940   22.5460 C   0  0  0  0  0  0  0  0  0  0  0  0
  2  1  1  1
  2  3  1  0
  2  7  1  0
  3  4  1  0
  4  5  1  0
  5  6  2  0
  5  7  1  0
  7  8  1  0
  8  9  1  0
  9 24  1  0
  9 10  2  0
 10 11  1  0
 11 12  2  0
 12 13  1  0
 13 14  1  0
 13 24  2  0
 14 15  1  0
 15 16  2  0
 15 17  1  0
 17 18  1  0
 18 19  2  0
 18 23  1  0
 19 20  1  0
 20 21  2  0
 21 22  1  0
 22 23  2  0
M  END
>  <original SMILES>  (813) 
NC1SCC(=O)N1Cc1cccc(NC(=O)Nc2cccnc2)c1

>  <AutoDock Predicted Affinity>  (813) 
-6.520615

>  <ref_pdb>  (813) 
x0434_0

>  <ref_mols>  (813) 
x0434_0

>  <creator>  (813) 
Will Poole

>  <energy minimised>  (813) 
True

$$$$
WPC1260_minimised.pdb
     RDKit          3D

 23 24  0  0  0  0  0  0  0  0999 V2000
   12.4420    7.2940   25.3410 N   0  0  0  0  0  0  0  0  0  0  0  0
   11.8940    5.9450   25.1980 C   0  0  0  0  0  0  0  0  0  0  0  0
   11.1880    5.7280   23.8480 C   0  0  0  0  0  0  0  0  0  0  0  0
   10.2690    4.4830   23.8420 C   0  0  0  0  0  0  0  0  0  0  0  0
   10.9640    3.1370   24.1730 C   0  0  0  0  0  0  0  0  0  0  0  0
   11.9580    2.7060   23.0730 C   0  0  0  0  0  0  0  0  0  0  0  0
   12.6820    1.0210   23.3440 S   0  0  0  0  0  0  0  0  0  0  0  0
   11.4000   -0.2010   23.0610 C   0  0  0  0  0  0  0  0  0  0  0  0
   11.6920   -1.5580   23.2810 C   0  0  0  0  0  0  0  0  0  0  0  0
   10.6990   -2.5430   23.1630 C   0  0  0  0  0  0  0  0  0  0  0  0
    9.4040   -2.1780   22.7730 C   0  0  0  0  0  0  0  0  0  0  0  0
    9.1220   -0.8370   22.4880 C   0  0  0  0  0  0  0  0  0  0  0  0
    7.8450   -0.4800   22.0270 N   0  0  0  0  0  0  0  0  0  0  0  0
    7.5930    0.1100   20.8240 C   0  0  0  0  0  0  0  0  0  0  0  0
    8.4460    0.4240   20.0170 O   0  0  0  0  0  0  0  0  0  0  0  0
    6.2580    0.2980   20.6140 N   0  0  0  0  0  0  0  0  0  0  0  0
    5.6760    0.8710   19.4630 C   0  0  0  0  0  0  0  0  0  0  0  0
    4.6660    1.8280   19.6080 C   0  0  0  0  0  0  0  0  0  0  0  0
    4.1860    2.4420   18.4460 C   0  0  0  0  0  0  0  0  0  0  0  0
    4.7310    2.0950   17.2020 C   0  0  0  0  0  0  0  0  0  0  0  0
    5.6670    1.1300   17.0480 N   0  0  0  0  0  0  0  0  0  0  0  0
    6.1370    0.5480   18.1690 C   0  0  0  0  0  0  0  0  0  0  0  0
   10.1110    0.1480   22.6280 C   0  0  0  0  0  0  0  0  0  0  0  0
  1  2  1  0
  2  3  1  0
  3  4  1  0
  4  5  1  0
  5  6  1  0
  6  7  1  0
  7  8  1  0
  8 23  2  0
  8  9  1  0
  9 10  2  0
 10 11  1  0
 11 12  2  0
 12 13  1  0
 12 23  1  0
 13 14  1  0
 14 15  2  0
 14 16  1  0
 16 17  1  0
 17 18  2  0
 17 22  1  0
 18 19  1  0
 19 20  2  0
 20 21  1  0
 21 22  2  0
M  END
>  <original SMILES>  (814) 
NCCCCCSc1cccc(NC(=O)Nc2cccnc2)c1

>  <AutoDock Predicted Affinity>  (814) 
-4.932108

>  <ref_pdb>  (814) 
x0434_0

>  <ref_mols>  (814) 
x0434_0

>  <creator>  (814) 
Will Poole

>  <energy minimised>  (814) 
True

$$$$
WPC2586_minimised.pdb
     RDKit          3D

 22 23  0  0  0  0  0  0  0  0999 V2000
    8.6850    5.4090   22.9210 N   0  0  0  0  0  0  0  0  0  0  0  0
    9.7860    4.8370   23.6910 C   0  0  0  0  0  0  0  0  0  0  0  0
   11.0530    5.6430   23.3890 C   0  0  0  0  0  0  0  0  0  0  0  0
   12.3460    5.0130   23.9540 C   0  0  0  0  0  0  0  0  0  0  0  0
   13.4530    4.8410   22.8840 C   0  0  0  0  0  0  0  0  0  0  0  0
   12.9020    3.7630   21.4890 S   0  0  0  0  0  0  0  0  0  0  0  0
   12.2390    2.3240   22.3000 C   0  0  0  0  0  0  0  0  0  0  0  0
   12.9910    1.6460   23.2660 C   0  0  0  0  0  0  0  0  0  0  0  0
   12.4030    0.6080   24.0050 C   0  0  0  0  0  0  0  0  0  0  0  0
   11.0830    0.2040   23.7370 C   0  0  0  0  0  0  0  0  0  0  0  0
   10.3480    0.8390   22.7250 C   0  0  0  0  0  0  0  0  0  0  0  0
    9.0150    0.4400   22.4590 N   0  0  0  0  0  0  0  0  0  0  0  0
    8.4340    0.4050   21.2180 C   0  0  0  0  0  0  0  0  0  0  0  0
    9.0550    0.5800   20.1930 O   0  0  0  0  0  0  0  0  0  0  0  0
    7.0770    0.2180   21.2000 N   0  0  0  0  0  0  0  0  0  0  0  0
    6.2740    0.5300   20.0710 C   0  0  0  0  0  0  0  0  0  0  0  0
    5.2570    1.4810   20.2140 C   0  0  0  0  0  0  0  0  0  0  0  0
    4.6170    1.9330   19.0540 C   0  0  0  0  0  0  0  0  0  0  0  0
    5.0110    1.4320   17.8040 C   0  0  0  0  0  0  0  0  0  0  0  0
    5.9440    0.4650   17.6570 N   0  0  0  0  0  0  0  0  0  0  0  0
    6.5740    0.0450   18.7760 C   0  0  0  0  0  0  0  0  0  0  0  0
   10.9310    1.9110   22.0220 C   0  0  0  0  0  0  0  0  0  0  0  0
  1  2  1  0
  2  3  1  0
  3  4  1  0
  4  5  1  0
  5  6  1  0
  6  7  1  0
  7 22  2  0
  7  8  1  0
  8  9  2  0
  9 10  1  0
 10 11  2  0
 11 12  1  0
 11 22  1  0
 12 13  1  0
 13 14  2  0
 13 15  1  0
 15 16  1  0
 16 17  2  0
 16 21  1  0
 17 18  1  0
 18 19  2  0
 19 20  1  0
 20 21  2  0
M  END
>  <original SMILES>  (815) 
NCCCCSc1cccc(NC(=O)Nc2cccnc2)c1

>  <AutoDock Predicted Affinity>  (815) 
-4.39554

>  <ref_pdb>  (815) 
x0434_0

>  <ref_mols>  (815) 
x0434_0

>  <creator>  (815) 
Will Poole

>  <energy minimised>  (815) 
True

$$$$
WPC1497_minimised.pdb
     RDKit          3D

 21 22  0  0  0  0  0  0  0  0999 V2000
   12.5970    5.9030   24.2570 N   0  0  0  0  0  0  0  0  0  0  0  0
   12.0080    5.2060   23.1030 C   0  0  0  0  0  0  0  0  0  0  0  0
   12.1320    3.6800   23.2420 C   0  0  0  0  0  0  0  0  0  0  0  0
   11.1920    3.1120   24.3260 C   0  0  0  0  0  0  0  0  0  0  0  0
   11.4900    1.6340   24.6590 C   0  0  0  0  0  0  0  0  0  0  0  0
   11.1560    0.6670   23.5460 C   0  0  0  0  0  0  0  0  0  0  0  0
   12.1760    0.0210   22.8250 C   0  0  0  0  0  0  0  0  0  0  0  0
   11.8500   -0.9480   21.8640 C   0  0  0  0  0  0  0  0  0  0  0  0
   10.5020   -1.2360   21.6020 C   0  0  0  0  0  0  0  0  0  0  0  0
    9.4870   -0.5400   22.2710 C   0  0  0  0  0  0  0  0  0  0  0  0
    8.1440   -0.6770   21.8800 N   0  0  0  0  0  0  0  0  0  0  0  0
    7.6970   -0.3420   20.6330 C   0  0  0  0  0  0  0  0  0  0  0  0
    8.4270   -0.1330   19.6830 O   0  0  0  0  0  0  0  0  0  0  0  0
    6.3390   -0.2040   20.5670 N   0  0  0  0  0  0  0  0  0  0  0  0
    5.6590    0.4270   19.5000 C   0  0  0  0  0  0  0  0  0  0  0  0
    4.7280    1.4330   19.7850 C   0  0  0  0  0  0  0  0  0  0  0  0
    4.1920    2.1480   18.7060 C   0  0  0  0  0  0  0  0  0  0  0  0
    4.6130    1.8510   17.4010 C   0  0  0  0  0  0  0  0  0  0  0  0
    5.4740    0.8490   17.1150 N   0  0  0  0  0  0  0  0  0  0  0  0
    5.9900    0.1630   18.1530 C   0  0  0  0  0  0  0  0  0  0  0  0
    9.8120    0.3900   23.2610 C   0  0  0  0  0  0  0  0  0  0  0  0
  1  2  1  0
  2  3  1  0
  3  4  1  0
  4  5  1  0
  5  6  1  0
  6 21  2  0
  6  7  1  0
  7  8  2  0
  8  9  1  0
  9 10  2  0
 10 11  1  0
 10 21  1  0
 11 12  1  0
 12 13  2  0
 12 14  1  0
 14 15  1  0
 15 16  2  0
 15 20  1  0
 16 17  1  0
 17 18  2  0
 18 19  1  0
 19 20  2  0
M  END
>  <original SMILES>  (816) 
NCCCCc1cccc(NC(=O)Nc2cccnc2)c1

>  <AutoDock Predicted Affinity>  (816) 
-5.679625

>  <ref_pdb>  (816) 
x0434_0

>  <ref_mols>  (816) 
x0434_0

>  <creator>  (816) 
Will Poole

>  <energy minimised>  (816) 
True

$$$$
WPC1740_minimised.pdb
     RDKit          3D

 24 25  0  0  0  0  0  0  0  0999 V2000
    4.3900    4.8560   21.2760 N   0  0  0  0  0  0  0  0  0  0  0  0
    5.0750    3.5930   21.0440 C   0  0  0  0  0  0  0  0  0  0  0  0
    6.2490    3.3310   22.0000 C   0  0  0  0  0  0  0  0  0  0  0  0
    7.3840    4.3700   21.9290 C   0  0  0  0  0  0  0  0  0  0  0  0
    8.4930    3.9020   22.7680 N   0  0  0  0  0  0  0  0  0  0  0  0
    9.4310    4.9300   23.2260 C   0  0  0  0  0  0  0  0  0  0  0  0
   10.4370    4.3310   24.2340 C   0  0  0  0  0  0  0  0  0  0  0  0
   12.0130    3.7420   23.4650 S   0  0  0  0  0  0  0  0  0  0  0  0
   11.9040    1.9840   23.1170 C   0  0  0  0  0  0  0  0  0  0  0  0
   13.0910    1.2660   22.8950 C   0  0  0  0  0  0  0  0  0  0  0  0
   13.0480   -0.0680   22.4520 C   0  0  0  0  0  0  0  0  0  0  0  0
   11.8100   -0.6940   22.2230 C   0  0  0  0  0  0  0  0  0  0  0  0
   10.6220    0.0120   22.4590 C   0  0  0  0  0  0  0  0  0  0  0  0
    9.3770   -0.5310   22.0660 N   0  0  0  0  0  0  0  0  0  0  0  0
    8.5960    0.0390   21.0940 C   0  0  0  0  0  0  0  0  0  0  0  0
    8.9190    1.0570   20.5120 O   0  0  0  0  0  0  0  0  0  0  0  0
    7.4230   -0.6080   20.7900 N   0  0  0  0  0  0  0  0  0  0  0  0
    6.5580   -0.1510   19.7600 C   0  0  0  0  0  0  0  0  0  0  0  0
    5.3710    0.5140   20.0880 C   0  0  0  0  0  0  0  0  0  0  0  0
    4.6520    1.1380   19.0530 C   0  0  0  0  0  0  0  0  0  0  0  0
    5.1290    1.0640   17.7390 C   0  0  0  0  0  0  0  0  0  0  0  0
    6.2400    0.3770   17.4090 N   0  0  0  0  0  0  0  0  0  0  0  0
    6.9550   -0.1840   18.4070 C   0  0  0  0  0  0  0  0  0  0  0  0
   10.6760    1.3290   22.9430 C   0  0  0  0  0  0  0  0  0  0  0  0
  1  2  1  0
  2  3  1  0
  3  4  1  0
  4  5  1  0
  5  6  1  0
  6  7  1  0
  7  8  1  0
  8  9  1  0
  9 24  2  0
  9 10  1  0
 10 11  2  0
 11 12  1  0
 12 13  2  0
 13 14  1  0
 13 24  1  0
 14 15  1  0
 15 16  2  0
 15 17  1  0
 17 18  1  0
 18 19  2  0
 18 23  1  0
 19 20  1  0
 20 21  2  0
 21 22  1  0
 22 23  2  0
M  END
>  <original SMILES>  (817) 
NCCCNCCSc1cccc(NC(=O)Nc2cccnc2)c1

>  <AutoDock Predicted Affinity>  (817) 
-4.383438

>  <ref_pdb>  (817) 
x0434_0

>  <ref_mols>  (817) 
x0434_0

>  <creator>  (817) 
Will Poole

>  <energy minimised>  (817) 
True

$$$$
WPC1213_minimised.pdb
     RDKit          3D

 21 22  0  0  0  0  0  0  0  0999 V2000
   11.9480    5.2130   22.3720 N   0  0  0  0  0  0  0  0  0  0  0  0
   10.8810    5.4120   23.3500 C   0  0  0  0  0  0  0  0  0  0  0  0
   10.0650    4.1220   23.5450 C   0  0  0  0  0  0  0  0  0  0  0  0
   10.8100    3.0580   24.3810 C   0  0  0  0  0  0  0  0  0  0  0  0
   12.2160    2.2780   23.4690 S   0  0  0  0  0  0  0  0  0  0  0  0
   11.5910    0.7040   22.9330 C   0  0  0  0  0  0  0  0  0  0  0  0
   12.4520   -0.4000   22.8970 C   0  0  0  0  0  0  0  0  0  0  0  0
   11.9480   -1.6800   22.6110 C   0  0  0  0  0  0  0  0  0  0  0  0
   10.5870   -1.8440   22.3040 C   0  0  0  0  0  0  0  0  0  0  0  0
    9.7450   -0.7250   22.2660 C   0  0  0  0  0  0  0  0  0  0  0  0
    8.4000   -0.8410   21.8740 N   0  0  0  0  0  0  0  0  0  0  0  0
    7.9060   -0.2860   20.7300 C   0  0  0  0  0  0  0  0  0  0  0  0
    8.5980    0.2350   19.8800 O   0  0  0  0  0  0  0  0  0  0  0  0
    6.5460   -0.3240   20.6300 N   0  0  0  0  0  0  0  0  0  0  0  0
    5.8310    0.3180   19.5930 C   0  0  0  0  0  0  0  0  0  0  0  0
    4.8990    1.3160   19.9040 C   0  0  0  0  0  0  0  0  0  0  0  0
    4.3370    2.0340   18.8390 C   0  0  0  0  0  0  0  0  0  0  0  0
    4.7290    1.7450   17.5220 C   0  0  0  0  0  0  0  0  0  0  0  0
    5.6020    0.7600   17.2150 N   0  0  0  0  0  0  0  0  0  0  0  0
    6.1490    0.0770   18.2400 C   0  0  0  0  0  0  0  0  0  0  0  0
   10.2440    0.5440   22.5830 C   0  0  0  0  0  0  0  0  0  0  0  0
  1  2  1  0
  2  3  1  0
  3  4  1  0
  4  5  1  0
  5  6  1  0
  6 21  2  0
  6  7  1  0
  7  8  2  0
  8  9  1  0
  9 10  2  0
 10 11  1  0
 10 21  1  0
 11 12  1  0
 12 13  2  0
 12 14  1  0
 14 15  1  0
 15 16  2  0
 15 20  1  0
 16 17  1  0
 17 18  2  0
 18 19  1  0
 19 20  2  0
M  END
>  <original SMILES>  (818) 
NCCCSc1cccc(NC(=O)Nc2cccnc2)c1

>  <AutoDock Predicted Affinity>  (818) 
-5.107224

>  <ref_pdb>  (818) 
x0434_0

>  <ref_mols>  (818) 
x0434_0

>  <creator>  (818) 
Will Poole

>  <energy minimised>  (818) 
True

$$$$
WPC1413_minimised.pdb
     RDKit          3D

 20 21  0  0  0  0  0  0  0  0999 V2000
   13.9260    6.0020   22.1230 N   0  0  0  0  0  0  0  0  0  0  0  0
   13.1650    4.8210   22.5420 C   0  0  0  0  0  0  0  0  0  0  0  0
   11.8670    5.1900   23.2850 C   0  0  0  0  0  0  0  0  0  0  0  0
   11.3020    4.0570   24.1760 C   0  0  0  0  0  0  0  0  0  0  0  0
   11.1450    2.6840   23.5250 C   0  0  0  0  0  0  0  0  0  0  0  0
   12.2500    1.8300   23.3320 C   0  0  0  0  0  0  0  0  0  0  0  0
   12.0810    0.5550   22.7660 C   0  0  0  0  0  0  0  0  0  0  0  0
   10.7970    0.1080   22.4190 C   0  0  0  0  0  0  0  0  0  0  0  0
    9.6890    0.9380   22.6430 C   0  0  0  0  0  0  0  0  0  0  0  0
    8.3910    0.5150   22.2950 N   0  0  0  0  0  0  0  0  0  0  0  0
    7.9580    0.3620   21.0100 C   0  0  0  0  0  0  0  0  0  0  0  0
    8.6960    0.3520   20.0470 O   0  0  0  0  0  0  0  0  0  0  0  0
    6.5970    0.2970   20.9000 N   0  0  0  0  0  0  0  0  0  0  0  0
    5.8850    0.6640   19.7340 C   0  0  0  0  0  0  0  0  0  0  0  0
    4.8850    1.6360   19.8560 C   0  0  0  0  0  0  0  0  0  0  0  0
    4.3140    2.1340   18.6810 C   0  0  0  0  0  0  0  0  0  0  0  0
    4.7700    1.6690   17.4410 C   0  0  0  0  0  0  0  0  0  0  0  0
    5.6870    0.6840   17.3110 N   0  0  0  0  0  0  0  0  0  0  0  0
    6.2440    0.2080   18.4450 C   0  0  0  0  0  0  0  0  0  0  0  0
    9.8630    2.2210   23.1820 C   0  0  0  0  0  0  0  0  0  0  0  0
  1  2  1  0
  2  3  1  0
  3  4  1  0
  4  5  1  0
  5 20  2  0
  5  6  1  0
  6  7  2  0
  7  8  1  0
  8  9  2  0
  9 10  1  0
  9 20  1  0
 10 11  1  0
 11 12  2  0
 11 13  1  0
 13 14  1  0
 14 15  2  0
 14 19  1  0
 15 16  1  0
 16 17  2  0
 17 18  1  0
 18 19  2  0
M  END
>  <original SMILES>  (819) 
NCCCc1cccc(NC(=O)Nc2cccnc2)c1

>  <AutoDock Predicted Affinity>  (819) 
-5.545757

>  <ref_pdb>  (819) 
x0434_0

>  <ref_mols>  (819) 
x0434_0

>  <creator>  (819) 
Will Poole

>  <energy minimised>  (819) 
True

$$$$
WPC2194_minimised.pdb
     RDKit          3D

 23 24  0  0  0  0  0  0  0  0999 V2000
   13.6850    4.8700   23.5810 N   0  0  0  0  0  0  0  0  0  0  0  0
   12.4020    4.7110   22.8810 C   0  0  0  0  0  0  0  0  0  0  0  0
   11.2270    5.3440   23.6720 C   0  0  0  0  0  0  0  0  0  0  0  0
    9.9170    4.7150   23.3930 N   0  0  0  0  0  0  0  0  0  0  0  0
    9.8030    3.2710   23.6950 C   0  0  0  0  0  0  0  0  0  0  0  0
   10.4440    2.9150   25.0560 C   0  0  0  0  0  0  0  0  0  0  0  0
   10.1210    1.1840   25.5740 S   0  0  0  0  0  0  0  0  0  0  0  0
   10.8030    0.3130   24.1980 C   0  0  0  0  0  0  0  0  0  0  0  0
   12.1350    0.4790   23.7830 C   0  0  0  0  0  0  0  0  0  0  0  0
   12.5620   -0.0870   22.5690 C   0  0  0  0  0  0  0  0  0  0  0  0
   11.6420   -0.7820   21.7620 C   0  0  0  0  0  0  0  0  0  0  0  0
   10.3130   -0.9260   22.1880 C   0  0  0  0  0  0  0  0  0  0  0  0
    9.2910   -1.3390   21.3230 N   0  0  0  0  0  0  0  0  0  0  0  0
    8.5430   -0.4170   20.6440 C   0  0  0  0  0  0  0  0  0  0  0  0
    8.8880    0.7380   20.4900 O   0  0  0  0  0  0  0  0  0  0  0  0
    7.3530   -0.8940   20.1750 N   0  0  0  0  0  0  0  0  0  0  0  0
    6.4490   -0.1400   19.3910 C   0  0  0  0  0  0  0  0  0  0  0  0
    5.7750    0.9590   19.9410 C   0  0  0  0  0  0  0  0  0  0  0  0
    4.9580    1.7220   19.0930 C   0  0  0  0  0  0  0  0  0  0  0  0
    4.8780    1.3920   17.7310 C   0  0  0  0  0  0  0  0  0  0  0  0
    5.5150    0.3220   17.2040 N   0  0  0  0  0  0  0  0  0  0  0  0
    6.2810   -0.4220   18.0240 C   0  0  0  0  0  0  0  0  0  0  0  0
    9.9060   -0.4050   23.4150 C   0  0  0  0  0  0  0  0  0  0  0  0
  1  2  1  0
  2  3  1  0
  3  4  1  0
  4  5  1  0
  5  6  1  0
  6  7  1  0
  7  8  1  0
  8 23  2  0
  8  9  1  0
  9 10  2  0
 10 11  1  0
 11 12  2  0
 12 13  1  0
 12 23  1  0
 13 14  1  0
 14 15  2  0
 14 16  1  0
 16 17  1  0
 17 18  2  0
 17 22  1  0
 18 19  1  0
 19 20  2  0
 20 21  1  0
 21 22  2  0
M  END
>  <original SMILES>  (820) 
NCCNCCSc1cccc(NC(=O)Nc2cccnc2)c1

>  <AutoDock Predicted Affinity>  (820) 
-4.786114

>  <ref_pdb>  (820) 
x0434_0

>  <ref_mols>  (820) 
x0434_0

>  <creator>  (820) 
Will Poole

>  <energy minimised>  (820) 
True

$$$$
WPC2170_minimised.pdb
     RDKit          3D

 24 25  0  0  0  0  0  0  0  0999 V2000
    6.8560    4.6330   21.5250 N   0  0  0  0  0  0  0  0  0  0  0  0
    7.2160    3.3610   22.1590 C   0  0  0  0  0  0  0  0  0  0  0  0
    8.4210    3.5490   23.1100 C   0  0  0  0  0  0  0  0  0  0  0  0
    9.7130    3.4100   22.4270 N   0  0  0  0  0  0  0  0  0  0  0  0
   11.0630    3.9310   23.1720 S   0  0  0  0  0  0  0  0  0  0  0  0
   11.8320    4.4760   22.0830 O   0  0  0  0  0  0  0  0  0  0  0  0
   10.6460    4.8000   24.2520 O   0  0  0  0  0  0  0  0  0  0  0  0
   11.8690    2.4710   23.8430 C   0  0  0  0  0  0  0  0  0  0  0  0
   11.6880    1.1360   23.1400 C   0  0  0  0  0  0  0  0  0  0  0  0
   12.7890    0.4470   22.5990 C   0  0  0  0  0  0  0  0  0  0  0  0
   12.5930   -0.7620   21.9090 C   0  0  0  0  0  0  0  0  0  0  0  0
   11.2930   -1.2680   21.7420 C   0  0  0  0  0  0  0  0  0  0  0  0
   10.2010   -0.5900   22.2930 C   0  0  0  0  0  0  0  0  0  0  0  0
    8.8750   -0.9190   21.9470 N   0  0  0  0  0  0  0  0  0  0  0  0
    8.2480   -0.3430   20.8730 C   0  0  0  0  0  0  0  0  0  0  0  0
    8.8280    0.3240   20.0410 O   0  0  0  0  0  0  0  0  0  0  0  0
    6.8940   -0.5320   20.8050 N   0  0  0  0  0  0  0  0  0  0  0  0
    6.0960    0.0640   19.7950 C   0  0  0  0  0  0  0  0  0  0  0  0
    5.1270    1.0150   20.1360 C   0  0  0  0  0  0  0  0  0  0  0  0
    4.4920    1.7010   19.0910 C   0  0  0  0  0  0  0  0  0  0  0  0
    4.8470    1.4280   17.7610 C   0  0  0  0  0  0  0  0  0  0  0  0
    5.7550    0.4860   17.4230 N   0  0  0  0  0  0  0  0  0  0  0  0
    6.3790   -0.1580   18.4300 C   0  0  0  0  0  0  0  0  0  0  0  0
   10.4110    0.5690   23.0390 C   0  0  0  0  0  0  0  0  0  0  0  0
  1  2  1  0
  2  3  1  0
  3  4  1  0
  4  5  1  0
  5  6  2  0
  5  7  2  0
  5  8  1  0
  8  9  1  0
  9 24  2  0
  9 10  1  0
 10 11  2  0
 11 12  1  0
 12 13  2  0
 13 14  1  0
 13 24  1  0
 14 15  1  0
 15 16  2  0
 15 17  1  0
 17 18  1  0
 18 19  2  0
 18 23  1  0
 19 20  1  0
 20 21  2  0
 21 22  1  0
 22 23  2  0
M  END
>  <original SMILES>  (821) 
NCCNS(=O)(=O)Cc1cccc(NC(=O)Nc2cccnc2)c1

>  <AutoDock Predicted Affinity>  (821) 
-5.249055

>  <ref_pdb>  (821) 
x0434_0

>  <ref_mols>  (821) 
x0434_0

>  <creator>  (821) 
Will Poole

>  <energy minimised>  (821) 
True

$$$$
WPC1088_minimised.pdb
     RDKit          3D

 24 25  0  0  0  0  0  0  0  0999 V2000
    8.5680    4.4550   23.2360 N   0  0  0  0  0  0  0  0  0  0  0  0
    9.6130    5.4510   23.3170 C   0  0  0  0  0  0  0  0  0  0  0  0
   10.5960    5.0790   22.2090 C   0  0  0  0  0  0  0  0  0  0  0  0
   11.1670    3.8140   22.3300 O   0  0  0  0  0  0  0  0  0  0  0  0
   12.3350    3.5070   23.3330 P   0  0  2  0  0  0  0  0  0  0  0  0
   13.3680    4.6390   23.8020 O   0  0  0  0  0  0  0  0  0  0  0  0
   13.6890    4.0310   22.7880 O   0  0  0  0  0  0  0  0  0  0  0  0
   11.8940    2.0170   24.3640 C   0  0  0  0  0  0  0  0  0  0  0  0
   11.7640    0.8370   23.4030 C   0  0  0  0  0  0  0  0  0  0  0  0
   12.8930    0.4240   22.8340 C   0  0  0  0  0  0  0  0  0  0  0  0
   12.8780   -0.7130   21.9060 C   0  0  0  0  0  0  0  0  0  0  0  0
   11.6480   -1.2850   21.6380 C   0  0  0  0  0  0  0  0  0  0  0  0
   10.4480   -0.7130   22.1410 C   0  0  0  0  0  0  0  0  0  0  0  0
    9.2050   -1.0940   21.6950 N   0  0  0  0  0  0  0  0  0  0  0  0
    8.5170   -0.3140   20.8240 C   0  0  0  0  0  0  0  0  0  0  0  0
    8.9820    0.6360   20.2270 O   0  0  0  0  0  0  0  0  0  0  0  0
    7.2020   -0.7470   20.7480 N   0  0  0  0  0  0  0  0  0  0  0  0
    6.3640   -0.1350   19.8060 C   0  0  0  0  0  0  0  0  0  0  0  0
    5.3690    0.7620   20.2350 C   0  0  0  0  0  0  0  0  0  0  0  0
    4.7570    1.5780   19.2590 C   0  0  0  0  0  0  0  0  0  0  0  0
    5.1650    1.4440   17.9050 C   0  0  0  0  0  0  0  0  0  0  0  0
    6.0620    0.5100   17.4840 N   0  0  0  0  0  0  0  0  0  0  0  0
    6.7040   -0.1830   18.4450 C   0  0  0  0  0  0  0  0  0  0  0  0
   10.4780    0.2850   23.1310 C   0  0  0  0  0  0  0  0  0  0  0  0
  1  2  1  0
  2  3  1  0
  3  4  1  0
  5  4  1  0
  5  6  2  0
  5  7  1  6
  5  8  1  0
  8  9  1  0
  9 24  2  0
  9 10  1  0
 10 11  2  0
 11 12  1  0
 12 13  2  0
 13 14  1  0
 13 24  1  0
 14 15  1  0
 15 16  2  0
 15 17  1  0
 17 18  1  0
 18 19  2  0
 18 23  1  0
 19 20  1  0
 20 21  2  0
 21 22  1  0
 22 23  2  0
M  END
>  <original SMILES>  (822) 
NCCOP(=O)(O)Cc1cccc(NC(=O)Nc2cccnc2)c1

>  <AutoDock Predicted Affinity>  (822) 
-5.33962

>  <ref_pdb>  (822) 
x0434_0

>  <ref_mols>  (822) 
x0434_0

>  <creator>  (822) 
Will Poole

>  <energy minimised>  (822) 
True

$$$$
WPC1633_minimised.pdb
     RDKit          3D

 22 23  0  0  0  0  0  0  0  0999 V2000
   10.0620    6.2660   23.4170 N   0  0  0  0  0  0  0  0  0  0  0  0
   10.8270    5.5320   24.4330 C   0  0  0  0  0  0  0  0  0  0  0  0
   12.3440    5.7700   24.2840 C   0  0  0  0  0  0  0  0  0  0  0  0
   13.0340    5.2190   22.6630 S   0  0  0  0  0  0  0  0  0  0  0  0
   12.1310    3.6490   22.3370 C   0  0  0  0  0  0  0  0  0  0  0  0
   12.5440    2.5170   23.2950 C   0  0  0  0  0  0  0  0  0  0  0  0
   11.9730    1.1600   22.9120 C   0  0  0  0  0  0  0  0  0  0  0  0
   12.8270    0.0630   22.7050 C   0  0  0  0  0  0  0  0  0  0  0  0
   12.3000   -1.1930   22.3630 C   0  0  0  0  0  0  0  0  0  0  0  0
   10.9140   -1.3580   22.2190 C   0  0  0  0  0  0  0  0  0  0  0  0
   10.0600   -0.2640   22.4110 C   0  0  0  0  0  0  0  0  0  0  0  0
    8.6810   -0.3860   22.1470 N   0  0  0  0  0  0  0  0  0  0  0  0
    8.1210   -0.0170   20.9560 C   0  0  0  0  0  0  0  0  0  0  0  0
    8.7780    0.3860   20.0190 O   0  0  0  0  0  0  0  0  0  0  0  0
    6.7570   -0.1080   20.8990 N   0  0  0  0  0  0  0  0  0  0  0  0
    5.9920    0.3760   19.8070 C   0  0  0  0  0  0  0  0  0  0  0  0
    5.0020    1.3390   20.0360 C   0  0  0  0  0  0  0  0  0  0  0  0
    4.3930    1.9250   18.9190 C   0  0  0  0  0  0  0  0  0  0  0  0
    4.7910    1.5400   17.6300 C   0  0  0  0  0  0  0  0  0  0  0  0
    5.7030    0.5700   17.3980 N   0  0  0  0  0  0  0  0  0  0  0  0
    6.3030    0.0210   18.4750 C   0  0  0  0  0  0  0  0  0  0  0  0
   10.5860    0.9890   22.7600 C   0  0  0  0  0  0  0  0  0  0  0  0
  1  2  1  0
  2  3  1  0
  3  4  1  0
  4  5  1  0
  5  6  1  0
  6  7  1  0
  7 22  2  0
  7  8  1  0
  8  9  2  0
  9 10  1  0
 10 11  2  0
 11 12  1  0
 11 22  1  0
 12 13  1  0
 13 14  2  0
 13 15  1  0
 15 16  1  0
 16 17  2  0
 16 21  1  0
 17 18  1  0
 18 19  2  0
 19 20  1  0
 20 21  2  0
M  END
>  <original SMILES>  (823) 
NCCSCCc1cccc(NC(=O)Nc2cccnc2)c1

>  <AutoDock Predicted Affinity>  (823) 
-5.245777

>  <ref_pdb>  (823) 
x0434_0

>  <ref_mols>  (823) 
x0434_0

>  <creator>  (823) 
Will Poole

>  <energy minimised>  (823) 
True

$$$$
WPC2411_minimised.pdb
     RDKit          3D

 20 21  0  0  0  0  0  0  0  0999 V2000
   13.9420    5.9450   22.1180 N   0  0  0  0  0  0  0  0  0  0  0  0
   13.1570    4.8080   22.6110 C   0  0  0  0  0  0  0  0  0  0  0  0
   11.8810    5.2630   23.3340 C   0  0  0  0  0  0  0  0  0  0  0  0
   11.2650    4.0120   24.5420 S   0  0  0  0  0  0  0  0  0  0  0  0
   11.1440    2.4580   23.6720 C   0  0  0  0  0  0  0  0  0  0  0  0
   12.2850    1.7010   23.3490 C   0  0  0  0  0  0  0  0  0  0  0  0
   12.1540    0.4740   22.6780 C   0  0  0  0  0  0  0  0  0  0  0  0
   10.8770   -0.0080   22.3430 C   0  0  0  0  0  0  0  0  0  0  0  0
    9.7370    0.7340   22.6920 C   0  0  0  0  0  0  0  0  0  0  0  0
    8.4480    0.3010   22.3280 N   0  0  0  0  0  0  0  0  0  0  0  0
    8.0040    0.2430   21.0390 C   0  0  0  0  0  0  0  0  0  0  0  0
    8.7380    0.3060   20.0740 O   0  0  0  0  0  0  0  0  0  0  0  0
    6.6430    0.1830   20.9260 N   0  0  0  0  0  0  0  0  0  0  0  0
    5.9310    0.5910   19.7720 C   0  0  0  0  0  0  0  0  0  0  0  0
    4.9350    1.5640   19.9190 C   0  0  0  0  0  0  0  0  0  0  0  0
    4.3670    2.0960   18.7560 C   0  0  0  0  0  0  0  0  0  0  0  0
    4.8190    1.6600   17.5040 C   0  0  0  0  0  0  0  0  0  0  0  0
    5.7360    0.6790   17.3490 N   0  0  0  0  0  0  0  0  0  0  0  0
    6.2900    0.1710   18.4710 C   0  0  0  0  0  0  0  0  0  0  0  0
    9.8730    1.9620   23.3540 C   0  0  0  0  0  0  0  0  0  0  0  0
  1  2  1  0
  2  3  1  0
  3  4  1  0
  4  5  1  0
  5 20  2  0
  5  6  1  0
  6  7  2  0
  7  8  1  0
  8  9  2  0
  9 10  1  0
  9 20  1  0
 10 11  1  0
 11 12  2  0
 11 13  1  0
 13 14  1  0
 14 15  2  0
 14 19  1  0
 15 16  1  0
 16 17  2  0
 17 18  1  0
 18 19  2  0
M  END
>  <original SMILES>  (824) 
NCCSc1cccc(NC(=O)Nc2cccnc2)c1

>  <AutoDock Predicted Affinity>  (824) 
-5.108535

>  <ref_pdb>  (824) 
x0434_0

>  <ref_mols>  (824) 
x0434_0

>  <creator>  (824) 
Will Poole

>  <energy minimised>  (824) 
True

$$$$
WPC1701_minimised.pdb
     RDKit          3D

 19 20  0  0  0  0  0  0  0  0999 V2000
   13.7830    4.7130   23.4020 N   0  0  0  0  0  0  0  0  0  0  0  0
   12.3710    4.9230   23.0520 C   0  0  0  0  0  0  0  0  0  0  0  0
   11.4150    3.9570   23.7860 C   0  0  0  0  0  0  0  0  0  0  0  0
   11.3190    2.5340   23.2420 C   0  0  0  0  0  0  0  0  0  0  0  0
   12.4490    1.7090   23.0770 C   0  0  0  0  0  0  0  0  0  0  0  0
   12.3110    0.4070   22.5630 C   0  0  0  0  0  0  0  0  0  0  0  0
   11.0360   -0.0970   22.2530 C   0  0  0  0  0  0  0  0  0  0  0  0
    9.9040    0.7030   22.4640 C   0  0  0  0  0  0  0  0  0  0  0  0
    8.6060    0.2400   22.1670 N   0  0  0  0  0  0  0  0  0  0  0  0
    8.0950    0.1710   20.9040 C   0  0  0  0  0  0  0  0  0  0  0  0
    8.7760    0.2110   19.9020 O   0  0  0  0  0  0  0  0  0  0  0  0
    6.7280    0.1430   20.8590 N   0  0  0  0  0  0  0  0  0  0  0  0
    5.9740    0.5620   19.7360 C   0  0  0  0  0  0  0  0  0  0  0  0
    5.0020    1.5530   19.9220 C   0  0  0  0  0  0  0  0  0  0  0  0
    4.3930    2.0920   18.7840 C   0  0  0  0  0  0  0  0  0  0  0  0
    4.7850    1.6490   17.5140 C   0  0  0  0  0  0  0  0  0  0  0  0
    5.6780    0.6510   17.3240 N   0  0  0  0  0  0  0  0  0  0  0  0
    6.2670    0.1330   18.4220 C   0  0  0  0  0  0  0  0  0  0  0  0
   10.0490    2.0120   22.9430 C   0  0  0  0  0  0  0  0  0  0  0  0
  1  2  1  0
  2  3  1  0
  3  4  1  0
  4 19  2  0
  4  5  1  0
  5  6  2  0
  6  7  1  0
  7  8  2  0
  8  9  1  0
  8 19  1  0
  9 10  1  0
 10 11  2  0
 10 12  1  0
 12 13  1  0
 13 14  2  0
 13 18  1  0
 14 15  1  0
 15 16  2  0
 16 17  1  0
 17 18  2  0
M  END
>  <original SMILES>  (825) 
NCCc1cccc(NC(=O)Nc2cccnc2)c1

>  <AutoDock Predicted Affinity>  (825) 
-5.636855

>  <ref_pdb>  (825) 
x0434_0

>  <ref_mols>  (825) 
x0434_0

>  <creator>  (825) 
Will Poole

>  <energy minimised>  (825) 
True

$$$$
WPC1518_minimised.pdb
     RDKit          3D

 18 19  0  0  0  0  0  0  0  0999 V2000
   11.7130    4.4670   22.8850 N   0  0  0  0  0  0  0  0  0  0  0  0
   11.0460    3.5470   23.8090 C   0  0  0  0  0  0  0  0  0  0  0  0
   11.0270    2.1260   23.2710 C   0  0  0  0  0  0  0  0  0  0  0  0
   12.2230    1.4320   23.0100 C   0  0  0  0  0  0  0  0  0  0  0  0
   12.1880    0.1460   22.4410 C   0  0  0  0  0  0  0  0  0  0  0  0
   10.9530   -0.4570   22.1420 C   0  0  0  0  0  0  0  0  0  0  0  0
    9.7610    0.2270   22.4230 C   0  0  0  0  0  0  0  0  0  0  0  0
    8.5060   -0.2930   22.0500 N   0  0  0  0  0  0  0  0  0  0  0  0
    8.0040   -0.1570   20.7870 C   0  0  0  0  0  0  0  0  0  0  0  0
    8.6890    0.0790   19.8130 O   0  0  0  0  0  0  0  0  0  0  0  0
    6.6380   -0.2110   20.7240 N   0  0  0  0  0  0  0  0  0  0  0  0
    5.8970    0.3380   19.6500 C   0  0  0  0  0  0  0  0  0  0  0  0
    4.9550    1.3390   19.9200 C   0  0  0  0  0  0  0  0  0  0  0  0
    4.3760    2.0010   18.8300 C   0  0  0  0  0  0  0  0  0  0  0  0
    4.7620    1.6580   17.5260 C   0  0  0  0  0  0  0  0  0  0  0  0
    5.6340    0.6620   17.2560 N   0  0  0  0  0  0  0  0  0  0  0  0
    6.1960    0.0280   18.3050 C   0  0  0  0  0  0  0  0  0  0  0  0
    9.7990    1.5100   22.9840 C   0  0  0  0  0  0  0  0  0  0  0  0
  1  2  1  0
  2  3  1  0
  3 18  2  0
  3  4  1  0
  4  5  2  0
  5  6  1  0
  6  7  2  0
  7  8  1  0
  7 18  1  0
  8  9  1  0
  9 10  2  0
  9 11  1  0
 11 12  1  0
 12 13  2  0
 12 17  1  0
 13 14  1  0
 14 15  2  0
 15 16  1  0
 16 17  2  0
M  END
>  <original SMILES>  (826) 
NCc1cccc(NC(=O)Nc2cccnc2)c1

>  <AutoDock Predicted Affinity>  (826) 
-5.72398

>  <ref_pdb>  (826) 
x0434_0

>  <ref_mols>  (826) 
x0434_0

>  <creator>  (826) 
Will Poole

>  <energy minimised>  (826) 
True

$$$$
WPC1085_minimised.pdb
     RDKit          3D

 23 24  0  0  0  0  0  0  0  0999 V2000
   12.3060    4.8410   22.2060 N   0  0  0  0  0  0  0  0  0  0  0  0
   12.3420    3.8670   23.1570 N   0  0  0  0  0  0  0  0  0  0  0  0
   11.3150    3.2510   23.6480 C   0  0  0  0  0  0  0  0  0  0  0  0
   11.5040    1.8980   24.2860 C   0  0  0  0  0  0  0  0  0  0  0  0
   11.1400    0.7510   23.3670 C   0  0  0  0  0  0  0  0  0  0  0  0
   12.1430   -0.0180   22.7500 C   0  0  0  0  0  0  0  0  0  0  0  0
   11.7940   -1.0960   21.9220 C   0  0  0  0  0  0  0  0  0  0  0  0
   10.4410   -1.3790   21.6810 C   0  0  0  0  0  0  0  0  0  0  0  0
    9.4450   -0.5790   22.2540 C   0  0  0  0  0  0  0  0  0  0  0  0
    8.1060   -0.7080   21.8510 N   0  0  0  0  0  0  0  0  0  0  0  0
    7.6740   -0.2930   20.6240 C   0  0  0  0  0  0  0  0  0  0  0  0
    8.4160    0.0080   19.7100 O   0  0  0  0  0  0  0  0  0  0  0  0
    6.3150   -0.1830   20.5350 N   0  0  0  0  0  0  0  0  0  0  0  0
    5.6460    0.4570   19.4660 C   0  0  0  0  0  0  0  0  0  0  0  0
    4.7070    1.4570   19.7450 C   0  0  0  0  0  0  0  0  0  0  0  0
    4.1810    2.1730   18.6610 C   0  0  0  0  0  0  0  0  0  0  0  0
    4.6230    1.8870   17.3610 C   0  0  0  0  0  0  0  0  0  0  0  0
    5.4980    0.8950   17.0830 N   0  0  0  0  0  0  0  0  0  0  0  0
    6.0010    0.2060   18.1240 C   0  0  0  0  0  0  0  0  0  0  0  0
    9.7910    0.4680   23.1120 C   0  0  0  0  0  0  0  0  0  0  0  0
   10.0080    3.7460   23.7570 N   0  0  0  0  0  0  0  0  0  0  0  0
    9.5040    4.9720   23.2390 N   0  0  0  0  0  0  0  0  0  0  0  0
   10.3160    5.9790   23.8040 O   0  0  0  0  0  0  0  0  0  0  0  0
  1  2  1  0
  2  3  2  0
  3 21  1  0
  3  4  1  0
  4  5  1  0
  5 20  2  0
  5  6  1  0
  6  7  2  0
  7  8  1  0
  8  9  2  0
  9 10  1  0
  9 20  1  0
 10 11  1  0
 11 12  2  0
 11 13  1  0
 13 14  1  0
 14 15  2  0
 14 19  1  0
 15 16  1  0
 16 17  2  0
 17 18  1  0
 18 19  2  0
 21 22  1  0
 22 23  1  0
M  END
>  <original SMILES>  (827) 
NN=C(Cc1cccc(NC(=O)Nc2cccnc2)c1)NNO

>  <AutoDock Predicted Affinity>  (827) 
-5.945427

>  <ref_pdb>  (827) 
x0434_0

>  <ref_mols>  (827) 
x0434_0

>  <creator>  (827) 
Will Poole

>  <energy minimised>  (827) 
True

$$$$
WPC1164_minimised.pdb
     RDKit          3D

 20 21  0  0  0  0  0  0  0  0999 V2000
   12.4170    5.0540   22.2830 N   0  0  0  0  0  0  0  0  0  0  0  0
   12.2660    4.2040   23.3300 N   0  0  0  0  0  0  0  0  0  0  0  0
   11.1520    3.5690   23.4350 C   0  0  0  0  0  0  0  0  0  0  0  0
   11.0010    2.3740   24.3330 C   0  0  0  0  0  0  0  0  0  0  0  0
   10.8530    1.1090   23.5170 C   0  0  0  0  0  0  0  0  0  0  0  0
   11.9860    0.4260   23.0380 C   0  0  0  0  0  0  0  0  0  0  0  0
   11.8330   -0.7070   22.2210 C   0  0  0  0  0  0  0  0  0  0  0  0
   10.5450   -1.1420   21.8670 C   0  0  0  0  0  0  0  0  0  0  0  0
    9.4210   -0.4450   22.3290 C   0  0  0  0  0  0  0  0  0  0  0  0
    8.1350   -0.7390   21.8450 N   0  0  0  0  0  0  0  0  0  0  0  0
    7.7230   -0.3540   20.6030 C   0  0  0  0  0  0  0  0  0  0  0  0
    8.4730   -0.0180   19.7080 O   0  0  0  0  0  0  0  0  0  0  0  0
    6.3630   -0.2940   20.4850 N   0  0  0  0  0  0  0  0  0  0  0  0
    5.7000    0.3770   19.4320 C   0  0  0  0  0  0  0  0  0  0  0  0
    4.7680    1.3780   19.7340 C   0  0  0  0  0  0  0  0  0  0  0  0
    4.2550    2.1310   18.6690 C   0  0  0  0  0  0  0  0  0  0  0  0
    4.7010    1.8780   17.3630 C   0  0  0  0  0  0  0  0  0  0  0  0
    5.5730    0.8900   17.0630 N   0  0  0  0  0  0  0  0  0  0  0  0
    6.0650    0.1660   18.0870 C   0  0  0  0  0  0  0  0  0  0  0  0
    9.5730    0.6680   23.1610 C   0  0  0  0  0  0  0  0  0  0  0  0
  1  2  1  0
  2  3  2  0
  3  4  1  0
  4  5  1  0
  5 20  2  0
  5  6  1  0
  6  7  2  0
  7  8  1  0
  8  9  2  0
  9 10  1  0
  9 20  1  0
 10 11  1  0
 11 12  2  0
 11 13  1  0
 13 14  1  0
 14 15  2  0
 14 19  1  0
 15 16  1  0
 16 17  2  0
 17 18  1  0
 18 19  2  0
M  END
>  <original SMILES>  (828) 
NN=CCc1cccc(NC(=O)Nc2cccnc2)c1

>  <AutoDock Predicted Affinity>  (828) 
-6.07781

>  <ref_pdb>  (828) 
x0434_0

>  <ref_mols>  (828) 
x0434_0

>  <creator>  (828) 
Will Poole

>  <energy minimised>  (828) 
True

$$$$
WPC1310_minimised.pdb
     RDKit          3D

 23 24  0  0  0  0  0  0  0  0999 V2000
    9.5930    4.9680   23.0900 N   0  0  0  0  0  0  0  0  0  0  0  0
   10.6930    5.4000   23.8900 N   0  0  0  0  0  0  0  0  0  0  0  0
   11.9690    4.8670   23.9400 C   0  0  0  0  0  0  0  0  0  0  0  0
   12.7790    5.3740   24.6860 O   0  0  0  0  0  0  0  0  0  0  0  0
   12.3180    3.6560   23.0810 C   0  0  0  0  0  0  0  0  0  0  0  0
   11.6920    2.3330   23.5790 C   0  0  0  0  0  0  0  0  0  0  0  0
   12.5340    0.8690   22.8140 S   0  0  0  0  0  0  0  0  0  0  0  0
   11.2850   -0.4040   22.7830 C   0  0  0  0  0  0  0  0  0  0  0  0
   11.5850   -1.7250   23.1530 C   0  0  0  0  0  0  0  0  0  0  0  0
   10.5800   -2.7060   23.1720 C   0  0  0  0  0  0  0  0  0  0  0  0
    9.2770   -2.3780   22.7670 C   0  0  0  0  0  0  0  0  0  0  0  0
    8.9940   -1.0760   22.3330 C   0  0  0  0  0  0  0  0  0  0  0  0
    7.7130   -0.7480   21.8540 N   0  0  0  0  0  0  0  0  0  0  0  0
    7.4600   -0.0970   20.6810 C   0  0  0  0  0  0  0  0  0  0  0  0
    8.3130    0.2660   19.8920 O   0  0  0  0  0  0  0  0  0  0  0  0
    6.1260    0.1120   20.4820 N   0  0  0  0  0  0  0  0  0  0  0  0
    5.5580    0.7580   19.3620 C   0  0  0  0  0  0  0  0  0  0  0  0
    4.5640    1.7250   19.5510 C   0  0  0  0  0  0  0  0  0  0  0  0
    4.1020    2.4070   18.4180 C   0  0  0  0  0  0  0  0  0  0  0  0
    4.6540    2.1190   17.1620 C   0  0  0  0  0  0  0  0  0  0  0  0
    5.5820    1.1540   16.9660 N   0  0  0  0  0  0  0  0  0  0  0  0
    6.0270    0.5010   18.0560 C   0  0  0  0  0  0  0  0  0  0  0  0
    9.9930   -0.0940   22.3470 C   0  0  0  0  0  0  0  0  0  0  0  0
  1  2  1  0
  2  3  1  0
  3  4  2  0
  3  5  1  0
  5  6  1  0
  6  7  1  0
  7  8  1  0
  8 23  2  0
  8  9  1  0
  9 10  2  0
 10 11  1  0
 11 12  2  0
 12 13  1  0
 12 23  1  0
 13 14  1  0
 14 15  2  0
 14 16  1  0
 16 17  1  0
 17 18  2  0
 17 22  1  0
 18 19  1  0
 19 20  2  0
 20 21  1  0
 21 22  2  0
M  END
>  <original SMILES>  (829) 
NNC(=O)CCSc1cccc(NC(=O)Nc2cccnc2)c1

>  <AutoDock Predicted Affinity>  (829) 
-5.586684

>  <ref_pdb>  (829) 
x0434_0

>  <ref_mols>  (829) 
x0434_0

>  <creator>  (829) 
Will Poole

>  <energy minimised>  (829) 
True

$$$$
WPC1597_minimised.pdb
     RDKit          3D

 23 24  0  0  0  0  0  0  0  0999 V2000
   13.6530    5.2930   21.3710 N   0  0  0  0  0  0  0  0  0  0  0  0
   13.5960    5.6040   22.7600 N   0  0  0  0  0  0  0  0  0  0  0  0
   12.5670    5.2930   23.6290 C   0  0  0  0  0  0  0  0  0  0  0  0
   12.6970    5.5180   24.8170 O   0  0  0  0  0  0  0  0  0  0  0  0
   11.4600    4.6840   23.0720 N   0  0  0  0  0  0  0  0  0  0  0  0
   10.3820    4.2480   23.8950 O   0  0  0  0  0  0  0  0  0  0  0  0
   10.7060    3.0420   24.6180 C   0  0  0  0  0  0  0  0  0  0  0  0
   10.7600    1.8270   23.7040 C   0  0  0  0  0  0  0  0  0  0  0  0
   11.9840    1.2710   23.2860 C   0  0  0  0  0  0  0  0  0  0  0  0
   11.9980    0.1380   22.4530 C   0  0  0  0  0  0  0  0  0  0  0  0
   10.7880   -0.4400   22.0330 C   0  0  0  0  0  0  0  0  0  0  0  0
    9.5690    0.1110   22.4580 C   0  0  0  0  0  0  0  0  0  0  0  0
    8.3340   -0.3800   21.9960 N   0  0  0  0  0  0  0  0  0  0  0  0
    7.8930   -0.1940   20.7180 C   0  0  0  0  0  0  0  0  0  0  0  0
    8.6220    0.0620   19.7810 O   0  0  0  0  0  0  0  0  0  0  0  0
    6.5300   -0.2310   20.6080 N   0  0  0  0  0  0  0  0  0  0  0  0
    5.8230    0.3580   19.5340 C   0  0  0  0  0  0  0  0  0  0  0  0
    4.8660    1.3420   19.8120 C   0  0  0  0  0  0  0  0  0  0  0  0
    4.3120    2.0380   18.7300 C   0  0  0  0  0  0  0  0  0  0  0  0
    4.7410    1.7460   17.4270 C   0  0  0  0  0  0  0  0  0  0  0  0
    5.6300    0.7670   17.1460 N   0  0  0  0  0  0  0  0  0  0  0  0
    6.1650    0.1000   18.1890 C   0  0  0  0  0  0  0  0  0  0  0  0
    9.5580    1.2360   23.2900 C   0  0  0  0  0  0  0  0  0  0  0  0
  1  2  1  0
  2  3  1  0
  3  4  2  0
  3  5  1  0
  5  6  1  0
  6  7  1  0
  7  8  1  0
  8 23  2  0
  8  9  1  0
  9 10  2  0
 10 11  1  0
 11 12  2  0
 12 13  1  0
 12 23  1  0
 13 14  1  0
 14 15  2  0
 14 16  1  0
 16 17  1  0
 17 18  2  0
 17 22  1  0
 18 19  1  0
 19 20  2  0
 20 21  1  0
 21 22  2  0
M  END
>  <original SMILES>  (830) 
NNC(=O)NOCc1cccc(NC(=O)Nc2cccnc2)c1

>  <AutoDock Predicted Affinity>  (830) 
-6.59518

>  <ref_pdb>  (830) 
x0434_0

>  <ref_mols>  (830) 
x0434_0

>  <creator>  (830) 
Will Poole

>  <energy minimised>  (830) 
True

$$$$
WPC1601_minimised.pdb
     RDKit          3D

 23 24  0  0  0  0  0  0  0  0999 V2000
   13.8940    5.1920   21.4100 N   0  0  0  0  0  0  0  0  0  0  0  0
   13.6740    5.7530   22.7020 N   0  0  0  0  0  0  0  0  0  0  0  0
   12.5430    5.5770   23.4730 C   0  0  0  0  0  0  0  0  0  0  0  0
   12.4010    6.2930   24.9660 S   0  0  0  0  0  0  0  0  0  0  0  0
   11.5970    4.7620   22.9130 N   0  0  0  0  0  0  0  0  0  0  0  0
   10.3970    4.2980   23.6140 C   0  0  0  0  0  0  0  0  0  0  0  0
   10.7060    3.0320   24.4390 C   0  0  0  0  0  0  0  0  0  0  0  0
   10.7790    1.7710   23.5970 C   0  0  0  0  0  0  0  0  0  0  0  0
   12.0090    1.2140   23.2020 C   0  0  0  0  0  0  0  0  0  0  0  0
   12.0350    0.0570   22.4020 C   0  0  0  0  0  0  0  0  0  0  0  0
   10.8300   -0.5410   21.9920 C   0  0  0  0  0  0  0  0  0  0  0  0
    9.6060    0.0120   22.3990 C   0  0  0  0  0  0  0  0  0  0  0  0
    8.3740   -0.4870   21.9370 N   0  0  0  0  0  0  0  0  0  0  0  0
    7.9140   -0.2460   20.6760 C   0  0  0  0  0  0  0  0  0  0  0  0
    8.6300    0.0600   19.7430 O   0  0  0  0  0  0  0  0  0  0  0  0
    6.5510   -0.2830   20.5780 N   0  0  0  0  0  0  0  0  0  0  0  0
    5.8370    0.3260   19.5180 C   0  0  0  0  0  0  0  0  0  0  0  0
    4.8920    1.3160   19.8160 C   0  0  0  0  0  0  0  0  0  0  0  0
    4.3350    2.0290   18.7460 C   0  0  0  0  0  0  0  0  0  0  0  0
    4.7490    1.7480   17.4360 C   0  0  0  0  0  0  0  0  0  0  0  0
    5.6290    0.7650   17.1390 N   0  0  0  0  0  0  0  0  0  0  0  0
    6.1660    0.0810   18.1690 C   0  0  0  0  0  0  0  0  0  0  0  0
    9.5840    1.1570   23.2010 C   0  0  0  0  0  0  0  0  0  0  0  0
  1  2  1  0
  2  3  1  0
  3  4  2  0
  3  5  1  0
  5  6  1  0
  6  7  1  0
  7  8  1  0
  8 23  2  0
  8  9  1  0
  9 10  2  0
 10 11  1  0
 11 12  2  0
 12 13  1  0
 12 23  1  0
 13 14  1  0
 14 15  2  0
 14 16  1  0
 16 17  1  0
 17 18  2  0
 17 22  1  0
 18 19  1  0
 19 20  2  0
 20 21  1  0
 21 22  2  0
M  END
>  <original SMILES>  (831) 
NNC(=S)NCCc1cccc(NC(=O)Nc2cccnc2)c1

>  <AutoDock Predicted Affinity>  (831) 
-5.87056

>  <ref_pdb>  (831) 
x0434_0

>  <ref_mols>  (831) 
x0434_0

>  <creator>  (831) 
Will Poole

>  <energy minimised>  (831) 
True

$$$$
WPC2030_minimised.pdb
     RDKit          3D

 23 24  0  0  1  0  0  0  0  0999 V2000
    9.1920    5.9280   22.7680 N   0  0  0  0  0  0  0  0  0  0  0  0
    9.4680    4.5940   23.2540 O   0  0  0  0  0  0  0  0  0  0  0  0
   10.6520    4.5250   24.0840 C   0  0  1  0  0  0  0  0  0  0  0  0
   10.7510    3.1060   24.6870 C   0  0  0  0  0  0  0  0  0  0  0  0
   10.7890    1.9600   23.6920 C   0  0  0  0  0  0  0  0  0  0  0  0
   12.0100    1.4460   23.2140 C   0  0  0  0  0  0  0  0  0  0  0  0
   12.0180    0.3410   22.3450 C   0  0  0  0  0  0  0  0  0  0  0  0
   10.8060   -0.2500   21.9480 C   0  0  0  0  0  0  0  0  0  0  0  0
    9.5910    0.2660   22.4240 C   0  0  0  0  0  0  0  0  0  0  0  0
    8.3520   -0.2380   21.9830 N   0  0  0  0  0  0  0  0  0  0  0  0
    7.8780   -0.0500   20.7170 C   0  0  0  0  0  0  0  0  0  0  0  0
    8.5750    0.2530   19.7710 O   0  0  0  0  0  0  0  0  0  0  0  0
    6.5170   -0.1370   20.6250 N   0  0  0  0  0  0  0  0  0  0  0  0
    5.7860    0.4180   19.5490 C   0  0  0  0  0  0  0  0  0  0  0  0
    4.8310    1.4070   19.8170 C   0  0  0  0  0  0  0  0  0  0  0  0
    4.2590    2.0730   18.7260 C   0  0  0  0  0  0  0  0  0  0  0  0
    4.6670    1.7450   17.4240 C   0  0  0  0  0  0  0  0  0  0  0  0
    5.5570    0.7630   17.1560 N   0  0  0  0  0  0  0  0  0  0  0  0
    6.1110    0.1270   18.2070 C   0  0  0  0  0  0  0  0  0  0  0  0
    9.5860    1.3630   23.2930 C   0  0  0  0  0  0  0  0  0  0  0  0
   11.9700    4.8950   23.3830 C   0  0  0  0  0  0  0  0  0  0  0  0
   13.0110    5.0320   24.0010 O   0  0  0  0  0  0  0  0  0  0  0  0
   11.9580    4.8980   22.0400 O   0  0  0  0  0  0  0  0  0  0  0  0
  1  2  1  0
  2  3  1  0
  3 21  1  0
  3  4  1  6
  4  5  1  0
  5 20  2  0
  5  6  1  0
  6  7  2  0
  7  8  1  0
  8  9  2  0
  9 10  1  0
  9 20  1  0
 10 11  1  0
 11 12  2  0
 11 13  1  0
 13 14  1  0
 14 15  2  0
 14 19  1  0
 15 16  1  0
 16 17  2  0
 17 18  1  0
 18 19  2  0
 21 22  2  0
 21 23  1  0
M  END
>  <original SMILES>  (832) 
NOC(Cc1cccc(NC(=O)Nc2cccnc2)c1)C(=O)O

>  <AutoDock Predicted Affinity>  (832) 
-6.05057

>  <ref_pdb>  (832) 
x0434_0

>  <ref_mols>  (832) 
x0434_0

>  <creator>  (832) 
Will Poole

>  <energy minimised>  (832) 
True

$$$$
WPC2392_minimised.pdb
     RDKit          3D

 19 20  0  0  0  0  0  0  0  0999 V2000
    9.6400    6.1680   22.6440 N   0  0  0  0  0  0  0  0  0  0  0  0
    9.5090    5.5070   23.9210 O   0  0  0  0  0  0  0  0  0  0  0  0
   10.7180    4.8260   24.3110 C   0  0  0  0  0  0  0  0  0  0  0  0
   10.7960    3.4260   23.7060 C   0  0  0  0  0  0  0  0  0  0  0  0
   12.0430    2.8580   23.3850 C   0  0  0  0  0  0  0  0  0  0  0  0
   12.1230    1.5450   22.8880 C   0  0  0  0  0  0  0  0  0  0  0  0
   10.9510    0.8090   22.6570 C   0  0  0  0  0  0  0  0  0  0  0  0
    9.7020    1.3820   22.9430 C   0  0  0  0  0  0  0  0  0  0  0  0
    8.5030    0.7250   22.5970 N   0  0  0  0  0  0  0  0  0  0  0  0
    8.1040    0.5430   21.3020 C   0  0  0  0  0  0  0  0  0  0  0  0
    8.8540    0.6340   20.3510 O   0  0  0  0  0  0  0  0  0  0  0  0
    6.7590    0.3340   21.1570 N   0  0  0  0  0  0  0  0  0  0  0  0
    6.0530    0.6400   19.9670 C   0  0  0  0  0  0  0  0  0  0  0  0
    5.0310    1.5940   20.0380 C   0  0  0  0  0  0  0  0  0  0  0  0
    4.4670    2.0360   18.8360 C   0  0  0  0  0  0  0  0  0  0  0  0
    4.9380    1.5210   17.6210 C   0  0  0  0  0  0  0  0  0  0  0  0
    5.8800    0.5550   17.5410 N   0  0  0  0  0  0  0  0  0  0  0  0
    6.4410    0.1450   18.7010 C   0  0  0  0  0  0  0  0  0  0  0  0
    9.6280    2.6740   23.4800 C   0  0  0  0  0  0  0  0  0  0  0  0
  1  2  1  0
  2  3  1  0
  3  4  1  0
  4 19  2  0
  4  5  1  0
  5  6  2  0
  6  7  1  0
  7  8  2  0
  8  9  1  0
  8 19  1  0
  9 10  1  0
 10 11  2  0
 10 12  1  0
 12 13  1  0
 13 14  2  0
 13 18  1  0
 14 15  1  0
 15 16  2  0
 16 17  1  0
 17 18  2  0
M  END
>  <original SMILES>  (833) 
NOCc1cccc(NC(=O)Nc2cccnc2)c1

>  <AutoDock Predicted Affinity>  (833) 
-5.13299

>  <ref_pdb>  (833) 
x0434_0

>  <ref_mols>  (833) 
x0434_0

>  <creator>  (833) 
Will Poole

>  <energy minimised>  (833) 
True

$$$$
WPC1516_minimised.pdb
     RDKit          3D

 23 24  0  0  0  0  0  0  0  0999 V2000
   10.7730    5.3650   23.0600 N   0  0  0  0  0  0  0  0  0  0  0  0
   12.2720    4.8480   23.2050 S   0  0  0  0  0  0  0  0  0  0  0  0
   12.7840    5.3280   21.9550 O   0  0  0  0  0  0  0  0  0  0  0  0
   12.6750    5.3870   24.4780 O   0  0  0  0  0  0  0  0  0  0  0  0
   12.0580    3.0910   23.2810 C   0  0  0  0  0  0  0  0  0  0  0  0
   11.1600    2.6360   24.4530 C   0  0  0  0  0  0  0  0  0  0  0  0
   11.3860    1.1520   24.7930 C   0  0  0  0  0  0  0  0  0  0  0  0
   11.0030    0.2440   23.6510 C   0  0  0  0  0  0  0  0  0  0  0  0
   11.9900   -0.3650   22.8560 C   0  0  0  0  0  0  0  0  0  0  0  0
   11.6180   -1.2400   21.8270 C   0  0  0  0  0  0  0  0  0  0  0  0
   10.2580   -1.4510   21.5580 C   0  0  0  0  0  0  0  0  0  0  0  0
    9.2790   -0.7670   22.2880 C   0  0  0  0  0  0  0  0  0  0  0  0
    7.9440   -0.7620   21.8480 N   0  0  0  0  0  0  0  0  0  0  0  0
    7.5770   -0.2810   20.6230 C   0  0  0  0  0  0  0  0  0  0  0  0
    8.3610    0.0060   19.7380 O   0  0  0  0  0  0  0  0  0  0  0  0
    6.2290   -0.1040   20.5000 N   0  0  0  0  0  0  0  0  0  0  0  0
    5.6070    0.5540   19.4150 C   0  0  0  0  0  0  0  0  0  0  0  0
    4.6620    1.5550   19.6690 C   0  0  0  0  0  0  0  0  0  0  0  0
    4.1730    2.2770   18.5720 C   0  0  0  0  0  0  0  0  0  0  0  0
    4.6560    1.9970   17.2850 C   0  0  0  0  0  0  0  0  0  0  0  0
    5.5350    1.0020   17.0300 N   0  0  0  0  0  0  0  0  0  0  0  0
    6.0020    0.3060   18.0840 C   0  0  0  0  0  0  0  0  0  0  0  0
    9.6470    0.0510   23.3580 C   0  0  0  0  0  0  0  0  0  0  0  0
  1  2  1  0
  2  3  2  0
  2  4  2  0
  2  5  1  0
  5  6  1  0
  6  7  1  0
  7  8  1  0
  8 23  2  0
  8  9  1  0
  9 10  2  0
 10 11  1  0
 11 12  2  0
 12 13  1  0
 12 23  1  0
 13 14  1  0
 14 15  2  0
 14 16  1  0
 16 17  1  0
 17 18  2  0
 17 22  1  0
 18 19  1  0
 19 20  2  0
 20 21  1  0
 21 22  2  0
M  END
>  <original SMILES>  (834) 
NS(=O)(=O)CCCc1cccc(NC(=O)Nc2cccnc2)c1

>  <AutoDock Predicted Affinity>  (834) 
-6.375025

>  <ref_pdb>  (834) 
x0434_0

>  <ref_mols>  (834) 
x0434_0

>  <creator>  (834) 
Will Poole

>  <energy minimised>  (834) 
True

$$$$
WPC1596_minimised.pdb
     RDKit          3D

 24 25  0  0  0  0  0  0  0  0999 V2000
    9.7670    5.9760   22.7260 N   0  0  0  0  0  0  0  0  0  0  0  0
   10.6500    4.9900   23.6010 S   0  0  0  0  0  0  0  0  0  0  0  0
   10.4740    5.5580   24.9060 O   0  0  0  0  0  0  0  0  0  0  0  0
   10.0150    3.7760   23.1820 O   0  0  0  0  0  0  0  0  0  0  0  0
   12.2600    5.3420   22.9290 C   0  0  0  0  0  0  0  0  0  0  0  0
   13.6950    4.2980   23.3890 S   0  0  0  0  0  0  0  0  0  0  0  0
   13.1820    2.6800   22.7120 C   0  0  0  0  0  0  0  0  0  0  0  0
   12.5480    1.7500   23.7610 C   0  0  0  0  0  0  0  0  0  0  0  0
   11.9140    0.5620   23.0770 C   0  0  0  0  0  0  0  0  0  0  0  0
   12.7300   -0.4280   22.5070 C   0  0  0  0  0  0  0  0  0  0  0  0
   12.1510   -1.5090   21.8320 C   0  0  0  0  0  0  0  0  0  0  0  0
   10.7570   -1.5860   21.6970 C   0  0  0  0  0  0  0  0  0  0  0  0
    9.9430   -0.5830   22.2410 C   0  0  0  0  0  0  0  0  0  0  0  0
    8.5610   -0.5630   21.9750 N   0  0  0  0  0  0  0  0  0  0  0  0
    8.0430   -0.2320   20.7540 C   0  0  0  0  0  0  0  0  0  0  0  0
    8.7240   -0.0610   19.7630 O   0  0  0  0  0  0  0  0  0  0  0  0
    6.6840   -0.0760   20.7450 N   0  0  0  0  0  0  0  0  0  0  0  0
    5.9440    0.4660   19.6650 C   0  0  0  0  0  0  0  0  0  0  0  0
    4.9900    1.4570   19.9230 C   0  0  0  0  0  0  0  0  0  0  0  0
    4.3770    2.0730   18.8250 C   0  0  0  0  0  0  0  0  0  0  0  0
    4.7480    1.7020   17.5240 C   0  0  0  0  0  0  0  0  0  0  0  0
    5.6240    0.7070   17.2650 N   0  0  0  0  0  0  0  0  0  0  0  0
    6.2160    0.1150   18.3230 C   0  0  0  0  0  0  0  0  0  0  0  0
   10.5190    0.4800   22.9460 C   0  0  0  0  0  0  0  0  0  0  0  0
  1  2  1  0
  2  3  2  0
  2  4  2  0
  2  5  1  0
  5  6  1  0
  6  7  1  0
  7  8  1  0
  8  9  1  0
  9 24  2  0
  9 10  1  0
 10 11  2  0
 11 12  1  0
 12 13  2  0
 13 14  1  0
 13 24  1  0
 14 15  1  0
 15 16  2  0
 15 17  1  0
 17 18  1  0
 18 19  2  0
 18 23  1  0
 19 20  1  0
 20 21  2  0
 21 22  1  0
 22 23  2  0
M  END
>  <original SMILES>  (835) 
NS(=O)(=O)CSCCc1cccc(NC(=O)Nc2cccnc2)c1

>  <AutoDock Predicted Affinity>  (835) 
-5.25905

>  <ref_pdb>  (835) 
x0434_0

>  <ref_mols>  (835) 
x0434_0

>  <creator>  (835) 
Will Poole

>  <energy minimised>  (835) 
True

$$$$
WPC1113_minimised.pdb
     RDKit          3D

 22 23  0  0  0  0  0  0  0  0999 V2000
   12.8020    5.2800   24.3960 N   0  0  0  0  0  0  0  0  0  0  0  0
   11.8240    5.1680   23.1700 S   0  0  0  0  0  0  0  0  0  0  0  0
   10.9570    6.1720   23.7310 O   0  0  0  0  0  0  0  0  0  0  0  0
   12.8770    5.4460   22.2330 O   0  0  0  0  0  0  0  0  0  0  0  0
   11.2290    3.5050   23.2860 C   0  0  0  0  0  0  0  0  0  0  0  0
   12.5410    2.2190   23.3900 S   0  0  0  0  0  0  0  0  0  0  0  0
   11.7540    0.7170   22.8590 C   0  0  0  0  0  0  0  0  0  0  0  0
   12.5670   -0.3640   22.4960 C   0  0  0  0  0  0  0  0  0  0  0  0
   11.9880   -1.5680   22.0720 C   0  0  0  0  0  0  0  0  0  0  0  0
   10.5930   -1.6730   21.9560 C   0  0  0  0  0  0  0  0  0  0  0  0
    9.7820   -0.5780   22.2810 C   0  0  0  0  0  0  0  0  0  0  0  0
    8.4020   -0.6020   22.0050 N   0  0  0  0  0  0  0  0  0  0  0  0
    7.8890   -0.1690   20.8150 C   0  0  0  0  0  0  0  0  0  0  0  0
    8.5850    0.1670   19.8780 O   0  0  0  0  0  0  0  0  0  0  0  0
    6.5240   -0.1030   20.7660 N   0  0  0  0  0  0  0  0  0  0  0  0
    5.8040    0.4650   19.6860 C   0  0  0  0  0  0  0  0  0  0  0  0
    4.8530    1.4620   19.9370 C   0  0  0  0  0  0  0  0  0  0  0  0
    4.2830    2.1100   18.8320 C   0  0  0  0  0  0  0  0  0  0  0  0
    4.6870    1.7590   17.5350 C   0  0  0  0  0  0  0  0  0  0  0  0
    5.5650    0.7620   17.2830 N   0  0  0  0  0  0  0  0  0  0  0  0
    6.1170    0.1450   18.3460 C   0  0  0  0  0  0  0  0  0  0  0  0
   10.3580    0.6060   22.7550 C   0  0  0  0  0  0  0  0  0  0  0  0
  1  2  1  0
  2  3  2  0
  2  4  2  0
  2  5  1  0
  5  6  1  0
  6  7  1  0
  7 22  2  0
  7  8  1  0
  8  9  2  0
  9 10  1  0
 10 11  2  0
 11 12  1  0
 11 22  1  0
 12 13  1  0
 13 14  2  0
 13 15  1  0
 15 16  1  0
 16 17  2  0
 16 21  1  0
 17 18  1  0
 18 19  2  0
 19 20  1  0
 20 21  2  0
M  END
>  <original SMILES>  (836) 
NS(=O)(=O)CSc1cccc(NC(=O)Nc2cccnc2)c1

>  <AutoDock Predicted Affinity>  (836) 
-5.262609

>  <ref_pdb>  (836) 
x0434_0

>  <ref_mols>  (836) 
x0434_0

>  <creator>  (836) 
Will Poole

>  <energy minimised>  (836) 
True

$$$$
WPC2251_minimised.pdb
     RDKit          3D

 21 22  0  0  0  0  0  0  0  0999 V2000
   12.7990    5.1800   24.1140 N   0  0  0  0  0  0  0  0  0  0  0  0
   11.9460    4.4980   22.9610 S   0  0  0  0  0  0  0  0  0  0  0  0
   10.7750    5.0790   23.5710 O   0  0  0  0  0  0  0  0  0  0  0  0
   12.8000    5.1870   22.0280 O   0  0  0  0  0  0  0  0  0  0  0  0
   12.3970    2.8490   23.4960 C   0  0  0  0  0  0  0  0  0  0  0  0
   11.8080    1.6280   22.8160 C   0  0  0  0  0  0  0  0  0  0  0  0
   12.6670    0.5810   22.4340 C   0  0  0  0  0  0  0  0  0  0  0  0
   12.1490   -0.6000   21.8820 C   0  0  0  0  0  0  0  0  0  0  0  0
   10.7630   -0.7440   21.7300 C   0  0  0  0  0  0  0  0  0  0  0  0
    9.9010    0.2890   22.1290 C   0  0  0  0  0  0  0  0  0  0  0  0
    8.5130    0.1660   21.9270 N   0  0  0  0  0  0  0  0  0  0  0  0
    7.9330    0.1320   20.6920 C   0  0  0  0  0  0  0  0  0  0  0  0
    8.5730    0.0730   19.6620 O   0  0  0  0  0  0  0  0  0  0  0  0
    6.5700    0.2420   20.7100 N   0  0  0  0  0  0  0  0  0  0  0  0
    5.7940    0.6770   19.6090 C   0  0  0  0  0  0  0  0  0  0  0  0
    4.8290    1.6670   19.8270 C   0  0  0  0  0  0  0  0  0  0  0  0
    4.2040    2.2260   18.7060 C   0  0  0  0  0  0  0  0  0  0  0  0
    4.5800    1.8070   17.4230 C   0  0  0  0  0  0  0  0  0  0  0  0
    5.4600    0.8040   17.2040 N   0  0  0  0  0  0  0  0  0  0  0  0
    6.0550    0.2600   18.2840 C   0  0  0  0  0  0  0  0  0  0  0  0
   10.4200    1.4740   22.6720 C   0  0  0  0  0  0  0  0  0  0  0  0
  1  2  1  0
  2  3  2  0
  2  4  2  0
  2  5  1  0
  5  6  1  0
  6 21  2  0
  6  7  1  0
  7  8  2  0
  8  9  1  0
  9 10  2  0
 10 11  1  0
 10 21  1  0
 11 12  1  0
 12 13  2  0
 12 14  1  0
 14 15  1  0
 15 16  2  0
 15 20  1  0
 16 17  1  0
 17 18  2  0
 18 19  1  0
 19 20  2  0
M  END
>  <original SMILES>  (837) 
NS(=O)(=O)Cc1cccc(NC(=O)Nc2cccnc2)c1

>  <AutoDock Predicted Affinity>  (837) 
-5.667547

>  <ref_pdb>  (837) 
x0434_0

>  <ref_mols>  (837) 
x0434_0

>  <creator>  (837) 
Will Poole

>  <energy minimised>  (837) 
True

$$$$
WPC1499_minimised.pdb
     RDKit          3D

 23 24  0  0  0  0  0  0  0  0999 V2000
   14.1200    4.7320   23.3020 N   0  0  0  0  0  0  0  0  0  0  0  0
   12.7440    5.0050   22.6110 S   0  0  0  0  0  0  0  0  0  0  0  0
   13.4890    5.2990   21.4250 O   0  0  0  0  0  0  0  0  0  0  0  0
   12.5080    5.9000   23.7040 O   0  0  0  0  0  0  0  0  0  0  0  0
   12.6240    3.4650   23.0220 N   0  0  0  0  0  0  0  0  0  0  0  0
   11.3950    3.1190   23.7300 C   0  0  0  0  0  0  0  0  0  0  0  0
   11.4910    1.7030   24.3180 C   0  0  0  0  0  0  0  0  0  0  0  0
   11.1110    0.6190   23.3380 C   0  0  0  0  0  0  0  0  0  0  0  0
   12.0970   -0.1520   22.7000 C   0  0  0  0  0  0  0  0  0  0  0  0
   11.7230   -1.1960   21.8400 C   0  0  0  0  0  0  0  0  0  0  0  0
   10.3630   -1.4380   21.5950 C   0  0  0  0  0  0  0  0  0  0  0  0
    9.3860   -0.6280   22.1870 C   0  0  0  0  0  0  0  0  0  0  0  0
    8.0420   -0.7170   21.7890 N   0  0  0  0  0  0  0  0  0  0  0  0
    7.6320   -0.3620   20.5380 C   0  0  0  0  0  0  0  0  0  0  0  0
    8.3880   -0.1970   19.6010 O   0  0  0  0  0  0  0  0  0  0  0  0
    6.2870   -0.1470   20.4550 N   0  0  0  0  0  0  0  0  0  0  0  0
    5.6460    0.5090   19.3800 C   0  0  0  0  0  0  0  0  0  0  0  0
    4.7040    1.5090   19.6540 C   0  0  0  0  0  0  0  0  0  0  0  0
    4.1930    2.2350   18.5700 C   0  0  0  0  0  0  0  0  0  0  0  0
    4.6550    1.9650   17.2740 C   0  0  0  0  0  0  0  0  0  0  0  0
    5.5280    0.9710   16.9980 N   0  0  0  0  0  0  0  0  0  0  0  0
    6.0110    0.2650   18.0380 C   0  0  0  0  0  0  0  0  0  0  0  0
    9.7560    0.3830   23.0750 C   0  0  0  0  0  0  0  0  0  0  0  0
  1  2  1  0
  2  3  2  0
  2  4  2  0
  2  5  1  0
  5  6  1  0
  6  7  1  0
  7  8  1  0
  8 23  2  0
  8  9  1  0
  9 10  2  0
 10 11  1  0
 11 12  2  0
 12 13  1  0
 12 23  1  0
 13 14  1  0
 14 15  2  0
 14 16  1  0
 16 17  1  0
 17 18  2  0
 17 22  1  0
 18 19  1  0
 19 20  2  0
 20 21  1  0
 21 22  2  0
M  END
>  <original SMILES>  (838) 
NS(=O)(=O)NCCc1cccc(NC(=O)Nc2cccnc2)c1

>  <AutoDock Predicted Affinity>  (838) 
-6.382582

>  <ref_pdb>  (838) 
x0434_0

>  <ref_mols>  (838) 
x0434_0

>  <creator>  (838) 
Will Poole

>  <energy minimised>  (838) 
True

$$$$
WPC2510_minimised.pdb
     RDKit          3D

 23 24  0  0  0  0  0  0  0  0999 V2000
   13.0620    5.2380   24.1250 N   0  0  0  0  0  0  0  0  0  0  0  0
   12.1720    4.9280   22.8620 S   0  0  0  0  0  0  0  0  0  0  0  0
   13.2350    5.4450   22.0410 O   0  0  0  0  0  0  0  0  0  0  0  0
   11.1440    5.7410   23.4680 O   0  0  0  0  0  0  0  0  0  0  0  0
   12.2260    3.3920   23.2900 O   0  0  0  0  0  0  0  0  0  0  0  0
   11.1190    2.9350   24.0690 C   0  0  0  0  0  0  0  0  0  0  0  0
   11.4180    1.4920   24.5020 C   0  0  0  0  0  0  0  0  0  0  0  0
   11.0680    0.4720   23.4480 C   0  0  0  0  0  0  0  0  0  0  0  0
   12.0730   -0.2050   22.7360 C   0  0  0  0  0  0  0  0  0  0  0  0
   11.7260   -1.2070   21.8170 C   0  0  0  0  0  0  0  0  0  0  0  0
   10.3710   -1.4850   21.5750 C   0  0  0  0  0  0  0  0  0  0  0  0
    9.3730   -0.7520   22.2280 C   0  0  0  0  0  0  0  0  0  0  0  0
    8.0310   -0.8440   21.8220 N   0  0  0  0  0  0  0  0  0  0  0  0
    7.6190   -0.4440   20.5830 C   0  0  0  0  0  0  0  0  0  0  0  0
    8.3730   -0.2320   19.6530 O   0  0  0  0  0  0  0  0  0  0  0  0
    6.2690   -0.2430   20.5040 N   0  0  0  0  0  0  0  0  0  0  0  0
    5.6250    0.4300   19.4400 C   0  0  0  0  0  0  0  0  0  0  0  0
    4.7000    1.4400   19.7300 C   0  0  0  0  0  0  0  0  0  0  0  0
    4.1910    2.1830   18.6570 C   0  0  0  0  0  0  0  0  0  0  0  0
    4.6350    1.9140   17.3540 C   0  0  0  0  0  0  0  0  0  0  0  0
    5.4960    0.9130   17.0640 N   0  0  0  0  0  0  0  0  0  0  0  0
    5.9800    0.1950   18.0950 C   0  0  0  0  0  0  0  0  0  0  0  0
    9.7180    0.2010   23.1870 C   0  0  0  0  0  0  0  0  0  0  0  0
  1  2  1  0
  2  3  2  0
  2  4  2  0
  2  5  1  0
  5  6  1  0
  6  7  1  0
  7  8  1  0
  8 23  2  0
  8  9  1  0
  9 10  2  0
 10 11  1  0
 11 12  2  0
 12 13  1  0
 12 23  1  0
 13 14  1  0
 14 15  2  0
 14 16  1  0
 16 17  1  0
 17 18  2  0
 17 22  1  0
 18 19  1  0
 19 20  2  0
 20 21  1  0
 21 22  2  0
M  END
>  <original SMILES>  (839) 
NS(=O)(=O)OCCc1cccc(NC(=O)Nc2cccnc2)c1

>  <AutoDock Predicted Affinity>  (839) 
-5.938

>  <ref_pdb>  (839) 
x0434_0

>  <ref_mols>  (839) 
x0434_0

>  <creator>  (839) 
Will Poole

>  <energy minimised>  (839) 
True

$$$$
WPC1301_minimised.pdb
     RDKit          3D

 17 18  0  0  0  0  0  0  0  0999 V2000
   11.5930    2.4240   24.3850 N   0  0  0  0  0  0  0  0  0  0  0  0
   11.3840    1.3340   23.5790 C   0  0  0  0  0  0  0  0  0  0  0  0
   12.4590    0.7060   22.9380 C   0  0  0  0  0  0  0  0  0  0  0  0
   12.2230   -0.3790   22.0770 C   0  0  0  0  0  0  0  0  0  0  0  0
   10.9040   -0.8000   21.8370 C   0  0  0  0  0  0  0  0  0  0  0  0
    9.8310   -0.1430   22.4580 C   0  0  0  0  0  0  0  0  0  0  0  0
    8.4980   -0.4210   22.0980 N   0  0  0  0  0  0  0  0  0  0  0  0
    8.0020   -0.2080   20.8420 C   0  0  0  0  0  0  0  0  0  0  0  0
    8.6940   -0.0390   19.8590 O   0  0  0  0  0  0  0  0  0  0  0  0
    6.6370   -0.1320   20.7890 N   0  0  0  0  0  0  0  0  0  0  0  0
    5.9180    0.4140   19.6970 C   0  0  0  0  0  0  0  0  0  0  0  0
    4.9840    1.4280   19.9400 C   0  0  0  0  0  0  0  0  0  0  0  0
    4.4020    2.0590   18.8330 C   0  0  0  0  0  0  0  0  0  0  0  0
    4.7830    1.6770   17.5380 C   0  0  0  0  0  0  0  0  0  0  0  0
    5.6470    0.6670   17.2930 N   0  0  0  0  0  0  0  0  0  0  0  0
    6.2090    0.0630   18.3600 C   0  0  0  0  0  0  0  0  0  0  0  0
   10.0760    0.9010   23.3570 C   0  0  0  0  0  0  0  0  0  0  0  0
  1  2  1  0
  2 17  2  0
  2  3  1  0
  3  4  2  0
  4  5  1  0
  5  6  2  0
  6  7  1  0
  6 17  1  0
  7  8  1  0
  8  9  2  0
  8 10  1  0
 10 11  1  0
 11 12  2  0
 11 16  1  0
 12 13  1  0
 13 14  2  0
 14 15  1  0
 15 16  2  0
M  END
>  <original SMILES>  (840) 
Nc1cccc(NC(=O)Nc2cccnc2)c1

>  <AutoDock Predicted Affinity>  (840) 
-5.39847

>  <ref_pdb>  (840) 
x0434_0

>  <ref_mols>  (840) 
x0434_0

>  <creator>  (840) 
Will Poole

>  <energy minimised>  (840) 
True

$$$$
WPC2149_minimised.pdb
     RDKit          3D

 24 26  0  0  0  0  0  0  0  0999 V2000
    8.5310    5.3030   22.2210 N   0  0  0  0  0  0  0  0  0  0  0  0
    9.6920    5.2110   22.9540 C   0  0  0  0  0  0  0  0  0  0  0  0
   10.1530    6.3140   23.6730 C   0  0  0  0  0  0  0  0  0  0  0  0
   11.3760    6.2420   24.3580 C   0  0  0  0  0  0  0  0  0  0  0  0
   12.1330    5.0670   24.3010 C   0  0  0  0  0  0  0  0  0  0  0  0
   11.6750    3.9430   23.5930 C   0  0  0  0  0  0  0  0  0  0  0  0
   12.7490    2.5060   23.5600 S   0  0  0  0  0  0  0  0  0  0  0  0
   11.9040    1.0670   22.9320 C   0  0  0  0  0  0  0  0  0  0  0  0
   12.6960    0.1180   22.2660 C   0  0  0  0  0  0  0  0  0  0  0  0
   12.1120   -1.0210   21.6960 C   0  0  0  0  0  0  0  0  0  0  0  0
   10.7210   -1.1890   21.7550 C   0  0  0  0  0  0  0  0  0  0  0  0
    9.9270   -0.2400   22.4160 C   0  0  0  0  0  0  0  0  0  0  0  0
    8.5330   -0.2570   22.2130 N   0  0  0  0  0  0  0  0  0  0  0  0
    7.9790    0.1450   21.0260 C   0  0  0  0  0  0  0  0  0  0  0  0
    8.6420    0.5150   20.0770 O   0  0  0  0  0  0  0  0  0  0  0  0
    6.6130    0.1140   20.9690 N   0  0  0  0  0  0  0  0  0  0  0  0
    5.8730    0.5860   19.8550 C   0  0  0  0  0  0  0  0  0  0  0  0
    4.9170    1.5920   20.0390 C   0  0  0  0  0  0  0  0  0  0  0  0
    4.3420    2.1590   18.8940 C   0  0  0  0  0  0  0  0  0  0  0  0
    4.7380    1.7120   17.6230 C   0  0  0  0  0  0  0  0  0  0  0  0
    5.6170    0.7030   17.4370 N   0  0  0  0  0  0  0  0  0  0  0  0
    6.1830    0.1710   18.5400 C   0  0  0  0  0  0  0  0  0  0  0  0
   10.5220    0.8510   23.0650 C   0  0  0  0  0  0  0  0  0  0  0  0
   10.4570    4.0380   22.8990 C   0  0  0  0  0  0  0  0  0  0  0  0
  1  2  1  0
  2 24  2  0
  2  3  1  0
  3  4  2  0
  4  5  1  0
  5  6  2  0
  6  7  1  0
  6 24  1  0
  7  8  1  0
  8 23  1  0
  8  9  2  0
  9 10  1  0
 10 11  2  0
 11 12  1  0
 12 13  1  0
 12 23  2  0
 13 14  1  0
 14 15  2  0
 14 16  1  0
 16 17  1  0
 17 18  2  0
 17 22  1  0
 18 19  1  0
 19 20  2  0
 20 21  1  0
 21 22  2  0
M  END
>  <original SMILES>  (841) 
Nc1cccc(Sc2cccc(NC(=O)Nc3cccnc3)c2)c1

>  <AutoDock Predicted Affinity>  (841) 
-6.01499

>  <ref_pdb>  (841) 
x0434_0

>  <ref_mols>  (841) 
x0434_0

>  <creator>  (841) 
Will Poole

>  <energy minimised>  (841) 
True

$$$$
WPC2224_minimised.pdb
     RDKit          3D

 24 26  0  0  0  0  0  0  0  0999 V2000
   13.8450    4.7540   23.7350 N   0  0  0  0  0  0  0  0  0  0  0  0
   12.4670    4.7460   23.7200 C   0  0  0  0  0  0  0  0  0  0  0  0
   11.7900    5.9600   23.8680 C   0  0  0  0  0  0  0  0  0  0  0  0
   10.4040    6.0250   23.6610 C   0  0  0  0  0  0  0  0  0  0  0  0
    9.7060    4.8620   23.3180 C   0  0  0  0  0  0  0  0  0  0  0  0
   10.3790    3.6320   23.2370 C   0  0  0  0  0  0  0  0  0  0  0  0
   11.7620    3.5480   23.5030 C   0  0  0  0  0  0  0  0  0  0  0  0
   12.6790    2.0020   23.6890 S   0  0  0  0  0  0  0  0  0  0  0  0
   11.8490    0.6390   22.9140 C   0  0  0  0  0  0  0  0  0  0  0  0
   12.6320   -0.1990   22.1070 C   0  0  0  0  0  0  0  0  0  0  0  0
   12.0520   -1.2940   21.4580 C   0  0  0  0  0  0  0  0  0  0  0  0
   10.6710   -1.5110   21.5680 C   0  0  0  0  0  0  0  0  0  0  0  0
    9.8850   -0.6590   22.3540 C   0  0  0  0  0  0  0  0  0  0  0  0
    8.4910   -0.6400   22.1560 N   0  0  0  0  0  0  0  0  0  0  0  0
    7.9490   -0.1820   20.9810 C   0  0  0  0  0  0  0  0  0  0  0  0
    8.6190    0.1570   20.0250 O   0  0  0  0  0  0  0  0  0  0  0  0
    6.5830   -0.1100   20.9500 N   0  0  0  0  0  0  0  0  0  0  0  0
    5.8560    0.4300   19.8570 C   0  0  0  0  0  0  0  0  0  0  0  0
    4.9220    1.4500   20.0820 C   0  0  0  0  0  0  0  0  0  0  0  0
    4.3510    2.0680   18.9610 C   0  0  0  0  0  0  0  0  0  0  0  0
    4.7330    1.6630   17.6720 C   0  0  0  0  0  0  0  0  0  0  0  0
    5.5920    0.6440   17.4450 N   0  0  0  0  0  0  0  0  0  0  0  0
    6.1510    0.0600   18.5240 C   0  0  0  0  0  0  0  0  0  0  0  0
   10.4890    0.3520   23.1090 C   0  0  0  0  0  0  0  0  0  0  0  0
  1  2  1  0
  2  3  2  0
  2  7  1  0
  3  4  1  0
  4  5  2  0
  5  6  1  0
  6  7  2  0
  7  8  1  0
  8  9  1  0
  9 24  1  0
  9 10  2  0
 10 11  1  0
 11 12  2  0
 12 13  1  0
 13 14  1  0
 13 24  2  0
 14 15  1  0
 15 16  2  0
 15 17  1  0
 17 18  1  0
 18 19  2  0
 18 23  1  0
 19 20  1  0
 20 21  2  0
 21 22  1  0
 22 23  2  0
M  END
>  <original SMILES>  (842) 
Nc1ccccc1Sc1cccc(NC(=O)Nc2cccnc2)c1

>  <AutoDock Predicted Affinity>  (842) 
-6.210825

>  <ref_pdb>  (842) 
x0434_0

>  <ref_mols>  (842) 
x0434_0

>  <creator>  (842) 
Will Poole

>  <energy minimised>  (842) 
True

$$$$
WPC1786_minimised.pdb
     RDKit          3D

 24 26  0  0  0  0  0  0  0  0999 V2000
   14.0440    4.6900   23.3130 N   0  0  0  0  0  0  0  0  0  0  0  0
   12.6620    4.5740   23.4640 C   0  0  0  0  0  0  0  0  0  0  0  0
   11.9450    5.7320   23.7900 C   0  0  0  0  0  0  0  0  0  0  0  0
   10.5450    5.6540   23.8570 C   0  0  0  0  0  0  0  0  0  0  0  0
    9.9240    4.4090   23.6820 C   0  0  0  0  0  0  0  0  0  0  0  0
   10.6140    3.2760   23.4730 N   0  0  0  0  0  0  0  0  0  0  0  0
   11.9500    3.3480   23.3100 C   0  0  0  0  0  0  0  0  0  0  0  0
   12.8910    1.8520   22.9530 S   0  0  0  0  0  0  0  0  0  0  0  0
   11.8080    0.4390   22.7270 C   0  0  0  0  0  0  0  0  0  0  0  0
   12.3820   -0.8180   22.9580 C   0  0  0  0  0  0  0  0  0  0  0  0
   11.6050   -1.9860   22.9320 C   0  0  0  0  0  0  0  0  0  0  0  0
   10.2440   -1.9080   22.6040 C   0  0  0  0  0  0  0  0  0  0  0  0
    9.6820   -0.6660   22.2760 C   0  0  0  0  0  0  0  0  0  0  0  0
    8.3250   -0.5780   21.9050 N   0  0  0  0  0  0  0  0  0  0  0  0
    7.8830   -0.1110   20.7010 C   0  0  0  0  0  0  0  0  0  0  0  0
    8.6120    0.1720   19.7730 O   0  0  0  0  0  0  0  0  0  0  0  0
    6.5260    0.0250   20.6380 N   0  0  0  0  0  0  0  0  0  0  0  0
    5.8230    0.6010   19.5540 C   0  0  0  0  0  0  0  0  0  0  0  0
    4.8520    1.5770   19.8060 C   0  0  0  0  0  0  0  0  0  0  0  0
    4.2710    2.2140   18.7020 C   0  0  0  0  0  0  0  0  0  0  0  0
    4.6850    1.8740   17.4060 C   0  0  0  0  0  0  0  0  0  0  0  0
    5.5860    0.8980   17.1530 N   0  0  0  0  0  0  0  0  0  0  0  0
    6.1480    0.2890   18.2160 C   0  0  0  0  0  0  0  0  0  0  0  0
   10.4650    0.5010   22.3180 C   0  0  0  0  0  0  0  0  0  0  0  0
  1  2  1  0
  2  3  2  0
  2  7  1  0
  3  4  1  0
  4  5  2  0
  5  6  1  0
  6  7  2  0
  7  8  1  0
  8  9  1  0
  9 24  1  0
  9 10  2  0
 10 11  1  0
 11 12  2  0
 12 13  1  0
 13 14  1  0
 13 24  2  0
 14 15  1  0
 15 16  2  0
 15 17  1  0
 17 18  1  0
 18 19  2  0
 18 23  1  0
 19 20  1  0
 20 21  2  0
 21 22  1  0
 22 23  2  0
M  END
>  <original SMILES>  (843) 
Nc1cccnc1Sc1cccc(NC(=O)Nc2cccnc2)c1

>  <AutoDock Predicted Affinity>  (843) 
-6.484495

>  <ref_pdb>  (843) 
x0434_0

>  <ref_mols>  (843) 
x0434_0

>  <creator>  (843) 
Will Poole

>  <energy minimised>  (843) 
True

$$$$
WPC1242_minimised.pdb
     RDKit          3D

 23 25  0  0  0  0  0  0  0  0999 V2000
    9.7860    5.7550   23.0620 N   0  0  0  0  0  0  0  0  0  0  0  0
   10.7190    4.8480   23.4000 C   0  0  0  0  0  0  0  0  0  0  0  0
   12.0200    4.8010   22.8730 C   0  0  0  0  0  0  0  0  0  0  0  0
   12.5890    3.6440   23.3100 C   0  0  0  0  0  0  0  0  0  0  0  0
   11.5740    3.0330   24.0300 N   0  0  0  0  0  0  0  0  0  0  0  0
   11.6000    1.6740   24.5680 C   0  0  0  0  0  0  0  0  0  0  0  0
   11.2150    0.6320   23.5430 C   0  0  0  0  0  0  0  0  0  0  0  0
   12.2010   -0.0810   22.8380 C   0  0  0  0  0  0  0  0  0  0  0  0
   11.8270   -1.0710   21.9170 C   0  0  0  0  0  0  0  0  0  0  0  0
   10.4660   -1.3130   21.6730 C   0  0  0  0  0  0  0  0  0  0  0  0
    9.4850   -0.5520   22.3240 C   0  0  0  0  0  0  0  0  0  0  0  0
    8.1330   -0.6480   21.9470 N   0  0  0  0  0  0  0  0  0  0  0  0
    7.6860   -0.3420   20.6920 C   0  0  0  0  0  0  0  0  0  0  0  0
    8.4160   -0.1850   19.7330 O   0  0  0  0  0  0  0  0  0  0  0  0
    6.3310   -0.1740   20.6250 N   0  0  0  0  0  0  0  0  0  0  0  0
    5.6580    0.4380   19.5410 C   0  0  0  0  0  0  0  0  0  0  0  0
    4.7280    1.4520   19.8040 C   0  0  0  0  0  0  0  0  0  0  0  0
    4.1940    2.1430   18.7090 C   0  0  0  0  0  0  0  0  0  0  0  0
    4.6140    1.8180   17.4120 C   0  0  0  0  0  0  0  0  0  0  0  0
    5.4750    0.8100   17.1470 N   0  0  0  0  0  0  0  0  0  0  0  0
    5.9890    0.1450   18.2000 C   0  0  0  0  0  0  0  0  0  0  0  0
    9.8580    0.4050   23.2730 C   0  0  0  0  0  0  0  0  0  0  0  0
   10.4400    3.7910   24.1150 N   0  0  0  0  0  0  0  0  0  0  0  0
  1  2  1  0
  2 23  2  0
  2  3  1  0
  3  4  2  0
  4  5  1  0
  5  6  1  0
  5 23  1  0
  6  7  1  0
  7 22  1  0
  7  8  2  0
  8  9  1  0
  9 10  2  0
 10 11  1  0
 11 12  1  0
 11 22  2  0
 12 13  1  0
 13 14  2  0
 13 15  1  0
 15 16  1  0
 16 17  2  0
 16 21  1  0
 17 18  1  0
 18 19  2  0
 19 20  1  0
 20 21  2  0
M  END
>  <original SMILES>  (844) 
Nc1ccn(Cc2cccc(NC(=O)Nc3cccnc3)c2)n1

>  <AutoDock Predicted Affinity>  (844) 
-6.22834

>  <ref_pdb>  (844) 
x0434_0

>  <ref_mols>  (844) 
x0434_0

>  <creator>  (844) 
Will Poole

>  <energy minimised>  (844) 
True

$$$$
WPC1625_minimised.pdb
     RDKit          3D

 24 26  0  0  0  0  0  0  0  0999 V2000
   14.3980    4.7510   22.8970 N   0  0  0  0  0  0  0  0  0  0  0  0
   13.3410    3.9260   23.0160 C   0  0  0  0  0  0  0  0  0  0  0  0
   12.1180    4.3290   23.5000 C   0  0  0  0  0  0  0  0  0  0  0  0
   11.1630    3.3270   23.6290 C   0  0  0  0  0  0  0  0  0  0  0  0
   11.4460    2.0550   23.3270 N   0  0  0  0  0  0  0  0  0  0  0  0
   12.6730    1.7810   22.8610 C   0  0  0  0  0  0  0  0  0  0  0  0
   13.1090    0.1110   22.3580 S   0  0  0  0  0  0  0  0  0  0  0  0
   11.6340   -0.8900   22.5530 C   0  0  0  0  0  0  0  0  0  0  0  0
   11.7410   -2.1780   23.1020 C   0  0  0  0  0  0  0  0  0  0  0  0
   10.6020   -2.9740   23.3000 C   0  0  0  0  0  0  0  0  0  0  0  0
    9.3420   -2.4960   22.9100 C   0  0  0  0  0  0  0  0  0  0  0  0
    9.2320   -1.2360   22.3040 C   0  0  0  0  0  0  0  0  0  0  0  0
    7.9670   -0.7800   21.8810 N   0  0  0  0  0  0  0  0  0  0  0  0
    7.6950   -0.1410   20.7040 C   0  0  0  0  0  0  0  0  0  0  0  0
    8.5220    0.1440   19.8590 O   0  0  0  0  0  0  0  0  0  0  0  0
    6.3640    0.1320   20.5650 N   0  0  0  0  0  0  0  0  0  0  0  0
    5.7510    0.7470   19.4500 C   0  0  0  0  0  0  0  0  0  0  0  0
    4.7490    1.7020   19.6560 C   0  0  0  0  0  0  0  0  0  0  0  0
    4.2230    2.3430   18.5280 C   0  0  0  0  0  0  0  0  0  0  0  0
    4.7220    2.0300   17.2550 C   0  0  0  0  0  0  0  0  0  0  0  0
    5.6530    1.0720   17.0440 N   0  0  0  0  0  0  0  0  0  0  0  0
    6.1620    0.4590   18.1310 C   0  0  0  0  0  0  0  0  0  0  0  0
   10.3760   -0.4400   22.1240 C   0  0  0  0  0  0  0  0  0  0  0  0
   13.6460    2.6820   22.7240 N   0  0  0  0  0  0  0  0  0  0  0  0
  1  2  1  0
  2 24  2  0
  2  3  1  0
  3  4  2  0
  4  5  1  0
  5  6  2  0
  6  7  1  0
  6 24  1  0
  7  8  1  0
  8 23  1  0
  8  9  2  0
  9 10  1  0
 10 11  2  0
 11 12  1  0
 12 13  1  0
 12 23  2  0
 13 14  1  0
 14 15  2  0
 14 16  1  0
 16 17  1  0
 17 18  2  0
 17 22  1  0
 18 19  1  0
 19 20  2  0
 20 21  1  0
 21 22  2  0
M  END
>  <original SMILES>  (845) 
Nc1ccnc(Sc2cccc(NC(=O)Nc3cccnc3)c2)n1

>  <AutoDock Predicted Affinity>  (845) 
-6.629165

>  <ref_pdb>  (845) 
x0434_0

>  <ref_mols>  (845) 
x0434_0

>  <creator>  (845) 
Will Poole

>  <energy minimised>  (845) 
True

$$$$
WPC2343_minimised.pdb
     RDKit          3D

 24 26  0  0  0  0  0  0  0  0999 V2000
   14.6480    4.6630   23.1180 N   0  0  0  0  0  0  0  0  0  0  0  0
   13.3430    4.8870   23.3210 C   0  0  0  0  0  0  0  0  0  0  0  0
   12.8420    6.0320   23.8530 N   0  0  0  0  0  0  0  0  0  0  0  0
   11.5020    5.8860   24.0250 N   0  0  0  0  0  0  0  0  0  0  0  0
   11.3310    4.6440   23.5900 C   0  0  0  0  0  0  0  0  0  0  0  0
    9.7660    3.9210   23.8430 S   0  0  0  0  0  0  0  0  0  0  0  0
   10.2850    2.3540   24.6640 C   0  0  0  0  0  0  0  0  0  0  0  0
   10.4070    1.2050   23.6900 C   0  0  0  0  0  0  0  0  0  0  0  0
   11.6560    0.7410   23.2420 C   0  0  0  0  0  0  0  0  0  0  0  0
   11.7240   -0.3210   22.3220 C   0  0  0  0  0  0  0  0  0  0  0  0
   10.5400   -0.9120   21.8490 C   0  0  0  0  0  0  0  0  0  0  0  0
    9.2980   -0.4370   22.2960 C   0  0  0  0  0  0  0  0  0  0  0  0
    8.0850   -0.8760   21.7430 N   0  0  0  0  0  0  0  0  0  0  0  0
    7.7050   -0.5270   20.4810 C   0  0  0  0  0  0  0  0  0  0  0  0
    8.4730   -0.2830   19.5710 O   0  0  0  0  0  0  0  0  0  0  0  0
    6.3500   -0.3860   20.3740 N   0  0  0  0  0  0  0  0  0  0  0  0
    5.7090    0.3290   19.3380 C   0  0  0  0  0  0  0  0  0  0  0  0
    4.7910    1.3350   19.6680 C   0  0  0  0  0  0  0  0  0  0  0  0
    4.2740    2.1120   18.6230 C   0  0  0  0  0  0  0  0  0  0  0  0
    4.7040    1.8800   17.3090 C   0  0  0  0  0  0  0  0  0  0  0  0
    5.5680    0.8920   16.9830 N   0  0  0  0  0  0  0  0  0  0  0  0
    6.0610    0.1420   17.9870 C   0  0  0  0  0  0  0  0  0  0  0  0
    9.2330    0.6070   23.2210 C   0  0  0  0  0  0  0  0  0  0  0  0
   12.4630    3.9530   23.2490 N   0  0  0  0  0  0  0  0  0  0  0  0
  1  2  1  0
  2 24  2  0
  2  3  1  0
  3  4  1  0
  4  5  2  0
  5  6  1  0
  5 24  1  0
  6  7  1  0
  7  8  1  0
  8 23  1  0
  8  9  2  0
  9 10  1  0
 10 11  2  0
 11 12  1  0
 12 13  1  0
 12 23  2  0
 13 14  1  0
 14 15  2  0
 14 16  1  0
 16 17  1  0
 17 18  2  0
 17 22  1  0
 18 19  1  0
 19 20  2  0
 20 21  1  0
 21 22  2  0
M  END
>  <original SMILES>  (846) 
Nc1nc(SCc2cccc(NC(=O)Nc3cccnc3)c2)n[nH]1

>  <AutoDock Predicted Affinity>  (846) 
-6.32315

>  <ref_pdb>  (846) 
x0434_0

>  <ref_mols>  (846) 
x0434_0

>  <creator>  (846) 
Will Poole

>  <energy minimised>  (846) 
True

$$$$
WPC2405_minimised.pdb
     RDKit          3D

 24 26  0  0  0  0  0  0  0  0999 V2000
    6.9470    3.9840   22.0060 N   0  0  0  0  0  0  0  0  0  0  0  0
    8.1580    4.4320   22.4070 C   0  0  0  0  0  0  0  0  0  0  0  0
    8.9340    3.5860   23.0130 N   0  0  0  0  0  0  0  0  0  0  0  0
   10.0580    4.3140   23.3480 C   0  0  0  0  0  0  0  0  0  0  0  0
   11.4700    3.6810   24.1720 S   0  0  0  0  0  0  0  0  0  0  0  0
   10.8920    2.0470   24.7780 C   0  0  0  0  0  0  0  0  0  0  0  0
   10.8750    0.9860   23.7030 C   0  0  0  0  0  0  0  0  0  0  0  0
   12.0670    0.4780   23.1580 C   0  0  0  0  0  0  0  0  0  0  0  0
   12.0170   -0.5350   22.1860 C   0  0  0  0  0  0  0  0  0  0  0  0
   10.7740   -1.0260   21.7530 C   0  0  0  0  0  0  0  0  0  0  0  0
    9.5890   -0.4980   22.2840 C   0  0  0  0  0  0  0  0  0  0  0  0
    8.3280   -0.8430   21.7670 N   0  0  0  0  0  0  0  0  0  0  0  0
    7.8960   -0.4080   20.5480 C   0  0  0  0  0  0  0  0  0  0  0  0
    8.6290   -0.0340   19.6550 O   0  0  0  0  0  0  0  0  0  0  0  0
    6.5350   -0.3400   20.4610 N   0  0  0  0  0  0  0  0  0  0  0  0
    5.8510    0.3590   19.4410 C   0  0  0  0  0  0  0  0  0  0  0  0
    4.9280    1.3550   19.7830 C   0  0  0  0  0  0  0  0  0  0  0  0
    4.3900    2.1260   18.7450 C   0  0  0  0  0  0  0  0  0  0  0  0
    4.8060    1.8990   17.4240 C   0  0  0  0  0  0  0  0  0  0  0  0
    5.6680    0.9150   17.0870 N   0  0  0  0  0  0  0  0  0  0  0  0
    6.1810    0.1700   18.0840 C   0  0  0  0  0  0  0  0  0  0  0  0
    9.6410    0.4940   23.2640 C   0  0  0  0  0  0  0  0  0  0  0  0
   10.0820    5.6270   23.1980 N   0  0  0  0  0  0  0  0  0  0  0  0
    8.7320    6.0740   22.4270 S   0  0  0  0  0  0  0  0  0  0  0  0
  1  2  1  0
  2  3  2  0
  2 24  1  0
  3  4  1  0
  4 23  2  0
  4  5  1  0
  5  6  1  0
  6  7  1  0
  7 22  1  0
  7  8  2  0
  8  9  1  0
  9 10  2  0
 10 11  1  0
 11 12  1  0
 11 22  2  0
 12 13  1  0
 13 14  2  0
 13 15  1  0
 15 16  1  0
 16 17  2  0
 16 21  1  0
 17 18  1  0
 18 19  2  0
 19 20  1  0
 20 21  2  0
 23 24  1  0
M  END
>  <original SMILES>  (847) 
Nc1nc(SCc2cccc(NC(=O)Nc3cccnc3)c2)ns1

>  <AutoDock Predicted Affinity>  (847) 
-5.7444

>  <ref_pdb>  (847) 
x0434_0

>  <ref_mols>  (847) 
x0434_0

>  <creator>  (847) 
Will Poole

>  <energy minimised>  (847) 
True

$$$$
WPC2547_minimised.pdb
     RDKit          3D

 23 25  0  0  0  0  0  0  0  0999 V2000
    9.2260    6.4050   22.8900 N   0  0  0  0  0  0  0  0  0  0  0  0
   10.0330    5.3830   23.2230 C   0  0  0  0  0  0  0  0  0  0  0  0
   11.2960    5.6550   23.4130 N   0  0  0  0  0  0  0  0  0  0  0  0
   11.9800    4.4840   23.6560 C   0  0  0  0  0  0  0  0  0  0  0  0
   11.1780    3.3650   23.7100 C   0  0  0  0  0  0  0  0  0  0  0  0
   11.6960    2.0170   24.1480 C   0  0  0  0  0  0  0  0  0  0  0  0
   11.3500    0.8490   23.2470 C   0  0  0  0  0  0  0  0  0  0  0  0
   12.3610    0.1030   22.6120 C   0  0  0  0  0  0  0  0  0  0  0  0
   12.0280   -1.0160   21.8310 C   0  0  0  0  0  0  0  0  0  0  0  0
   10.6800   -1.3630   21.6520 C   0  0  0  0  0  0  0  0  0  0  0  0
    9.6730   -0.5970   22.2490 C   0  0  0  0  0  0  0  0  0  0  0  0
    8.3230   -0.7850   21.9000 N   0  0  0  0  0  0  0  0  0  0  0  0
    7.8300   -0.4040   20.6830 C   0  0  0  0  0  0  0  0  0  0  0  0
    8.5250   -0.1250   19.7270 O   0  0  0  0  0  0  0  0  0  0  0  0
    6.4680   -0.2950   20.6470 N   0  0  0  0  0  0  0  0  0  0  0  0
    5.7610    0.3380   19.5960 C   0  0  0  0  0  0  0  0  0  0  0  0
    4.8520    1.3600   19.8970 C   0  0  0  0  0  0  0  0  0  0  0  0
    4.2900    2.0680   18.8260 C   0  0  0  0  0  0  0  0  0  0  0  0
    4.6620    1.7480   17.5110 C   0  0  0  0  0  0  0  0  0  0  0  0
    5.5090    0.7380   17.2130 N   0  0  0  0  0  0  0  0  0  0  0  0
    6.0520    0.0600   18.2430 C   0  0  0  0  0  0  0  0  0  0  0  0
   10.0080    0.4750   23.0790 C   0  0  0  0  0  0  0  0  0  0  0  0
    9.5020    3.7380   23.4020 S   0  0  0  0  0  0  0  0  0  0  0  0
  1  2  1  0
  2 23  1  0
  2  3  2  0
  3  4  1  0
  4  5  2  0
  5  6  1  0
  5 23  1  0
  6  7  1  0
  7 22  1  0
  7  8  2  0
  8  9  1  0
  9 10  2  0
 10 11  1  0
 11 12  1  0
 11 22  2  0
 12 13  1  0
 13 14  2  0
 13 15  1  0
 15 16  1  0
 16 17  2  0
 16 21  1  0
 17 18  1  0
 18 19  2  0
 19 20  1  0
 20 21  2  0
M  END
>  <original SMILES>  (848) 
Nc1ncc(Cc2cccc(NC(=O)Nc3cccnc3)c2)s1

>  <AutoDock Predicted Affinity>  (848) 
-6.22633

>  <ref_pdb>  (848) 
x0434_0

>  <ref_mols>  (848) 
x0434_0

>  <creator>  (848) 
Will Poole

>  <energy minimised>  (848) 
True

$$$$
WPC1791_minimised.pdb
     RDKit          3D

 24 26  0  0  0  0  0  0  0  0999 V2000
    6.8890    4.6430   21.8360 N   0  0  0  0  0  0  0  0  0  0  0  0
    8.1700    4.5000   22.2590 C   0  0  0  0  0  0  0  0  0  0  0  0
    8.7300    5.4460   22.9800 N   0  0  0  0  0  0  0  0  0  0  0  0
    9.9750    5.0770   23.4250 N   0  0  0  0  0  0  0  0  0  0  0  0
   10.2960    3.8540   23.0320 C   0  0  0  0  0  0  0  0  0  0  0  0
   11.6650    3.2740   23.2960 C   0  0  0  0  0  0  0  0  0  0  0  0
   11.6840    1.9630   24.1230 C   0  0  0  0  0  0  0  0  0  0  0  0
   11.3620    0.7180   23.3230 C   0  0  0  0  0  0  0  0  0  0  0  0
   12.3780    0.0340   22.6310 C   0  0  0  0  0  0  0  0  0  0  0  0
   12.0620   -1.0790   21.8360 C   0  0  0  0  0  0  0  0  0  0  0  0
   10.7220   -1.4670   21.6880 C   0  0  0  0  0  0  0  0  0  0  0  0
    9.7100   -0.7670   22.3550 C   0  0  0  0  0  0  0  0  0  0  0  0
    8.3650   -0.9200   21.9690 N   0  0  0  0  0  0  0  0  0  0  0  0
    7.9160   -0.4810   20.7520 C   0  0  0  0  0  0  0  0  0  0  0  0
    8.6440   -0.1960   19.8210 O   0  0  0  0  0  0  0  0  0  0  0  0
    6.5590   -0.3240   20.6850 N   0  0  0  0  0  0  0  0  0  0  0  0
    5.8890    0.3370   19.6260 C   0  0  0  0  0  0  0  0  0  0  0  0
    4.9710    1.3530   19.9210 C   0  0  0  0  0  0  0  0  0  0  0  0
    4.4330    2.0750   18.8470 C   0  0  0  0  0  0  0  0  0  0  0  0
    4.8410    1.7820   17.5370 C   0  0  0  0  0  0  0  0  0  0  0  0
    5.6930    0.7750   17.2430 N   0  0  0  0  0  0  0  0  0  0  0  0
    6.2100    0.0800   18.2750 C   0  0  0  0  0  0  0  0  0  0  0  0
   10.0370    0.2720   23.2300 C   0  0  0  0  0  0  0  0  0  0  0  0
    9.0540    3.0220   22.1190 S   0  0  0  0  0  0  0  0  0  0  0  0
  1  2  1  0
  2 24  1  0
  2  3  2  0
  3  4  1  0
  4  5  2  0
  5  6  1  0
  5 24  1  0
  6  7  1  0
  7  8  1  0
  8 23  1  0
  8  9  2  0
  9 10  1  0
 10 11  2  0
 11 12  1  0
 12 13  1  0
 12 23  2  0
 13 14  1  0
 14 15  2  0
 14 16  1  0
 16 17  1  0
 17 18  2  0
 17 22  1  0
 18 19  1  0
 19 20  2  0
 20 21  1  0
 21 22  2  0
M  END
>  <original SMILES>  (849) 
Nc1nnc(CCc2cccc(NC(=O)Nc3cccnc3)c2)s1

>  <AutoDock Predicted Affinity>  (849) 
-5.90059

>  <ref_pdb>  (849) 
x0434_0

>  <ref_mols>  (849) 
x0434_0

>  <creator>  (849) 
Will Poole

>  <energy minimised>  (849) 
True

$$$$
WPC2067_minimised.pdb
     RDKit          3D

 24 26  0  0  0  0  0  0  0  0999 V2000
   12.5880    7.2760   25.7180 N   0  0  0  0  0  0  0  0  0  0  0  0
   12.0890    6.2820   24.9460 C   0  0  0  0  0  0  0  0  0  0  0  0
   10.9470    5.7340   25.2680 N   0  0  0  0  0  0  0  0  0  0  0  0
   10.6390    4.6710   24.4660 N   0  0  0  0  0  0  0  0  0  0  0  0
   11.5850    4.4670   23.5720 C   0  0  0  0  0  0  0  0  0  0  0  0
   11.6220    3.2480   22.7310 C   0  0  0  0  0  0  0  0  0  0  0  0
   12.4570    1.8930   23.6520 S   0  0  0  0  0  0  0  0  0  0  0  0
   11.7570    0.4620   22.9000 C   0  0  0  0  0  0  0  0  0  0  0  0
   12.5970   -0.4780   22.2940 C   0  0  0  0  0  0  0  0  0  0  0  0
   12.0390   -1.5970   21.6650 C   0  0  0  0  0  0  0  0  0  0  0  0
   10.6440   -1.7500   21.6130 C   0  0  0  0  0  0  0  0  0  0  0  0
    9.8080   -0.7850   22.1890 C   0  0  0  0  0  0  0  0  0  0  0  0
    8.4250   -0.8000   21.9310 N   0  0  0  0  0  0  0  0  0  0  0  0
    7.9040   -0.3220   20.7610 C   0  0  0  0  0  0  0  0  0  0  0  0
    8.5910    0.0420   19.8270 O   0  0  0  0  0  0  0  0  0  0  0  0
    6.5380   -0.2490   20.7280 N   0  0  0  0  0  0  0  0  0  0  0  0
    5.8130    0.3570   19.6730 C   0  0  0  0  0  0  0  0  0  0  0  0
    4.8770    1.3580   19.9620 C   0  0  0  0  0  0  0  0  0  0  0  0
    4.3030    2.0420   18.8820 C   0  0  0  0  0  0  0  0  0  0  0  0
    4.6850    1.7180   17.5710 C   0  0  0  0  0  0  0  0  0  0  0  0
    5.5490    0.7200   17.2820 N   0  0  0  0  0  0  0  0  0  0  0  0
    6.1080    0.0700   18.3210 C   0  0  0  0  0  0  0  0  0  0  0  0
   10.3650    0.3070   22.8610 C   0  0  0  0  0  0  0  0  0  0  0  0
   12.9270    5.5710   23.6090 S   0  0  0  0  0  0  0  0  0  0  0  0
  1  2  1  0
  2 24  1  0
  2  3  2  0
  3  4  1  0
  4  5  2  0
  5  6  1  0
  5 24  1  0
  6  7  1  0
  7  8  1  0
  8 23  1  0
  8  9  2  0
  9 10  1  0
 10 11  2  0
 11 12  1  0
 12 13  1  0
 12 23  2  0
 13 14  1  0
 14 15  2  0
 14 16  1  0
 16 17  1  0
 17 18  2  0
 17 22  1  0
 18 19  1  0
 19 20  2  0
 20 21  1  0
 21 22  2  0
M  END
>  <original SMILES>  (850) 
Nc1nnc(CSc2cccc(NC(=O)Nc3cccnc3)c2)s1

>  <AutoDock Predicted Affinity>  (850) 
-5.512275

>  <ref_pdb>  (850) 
x0434_0

>  <ref_mols>  (850) 
x0434_0

>  <creator>  (850) 
Will Poole

>  <energy minimised>  (850) 
True

$$$$
WPC2562_minimised.pdb
     RDKit          3D

 23 25  0  0  0  0  0  0  0  0999 V2000
    8.5520    5.9700   22.3520 N   0  0  0  0  0  0  0  0  0  0  0  0
    9.3260    5.1600   23.1000 C   0  0  0  0  0  0  0  0  0  0  0  0
   10.0770    5.6680   24.0500 N   0  0  0  0  0  0  0  0  0  0  0  0
   10.7800    4.6790   24.6930 N   0  0  0  0  0  0  0  0  0  0  0  0
   10.5270    3.4890   24.1730 C   0  0  0  0  0  0  0  0  0  0  0  0
   11.2820    2.1180   24.9780 S   0  0  0  0  0  0  0  0  0  0  0  0
   11.0090    0.8950   23.7210 C   0  0  0  0  0  0  0  0  0  0  0  0
   12.1020    0.3810   23.0050 C   0  0  0  0  0  0  0  0  0  0  0  0
   11.8980   -0.6110   22.0330 C   0  0  0  0  0  0  0  0  0  0  0  0
   10.5930   -1.0440   21.7500 C   0  0  0  0  0  0  0  0  0  0  0  0
    9.5020   -0.5040   22.4440 C   0  0  0  0  0  0  0  0  0  0  0  0
    8.1840   -0.7180   21.9970 N   0  0  0  0  0  0  0  0  0  0  0  0
    7.7560   -0.2890   20.7710 C   0  0  0  0  0  0  0  0  0  0  0  0
    8.4980    0.0480   19.8690 O   0  0  0  0  0  0  0  0  0  0  0  0
    6.3960   -0.2030   20.6610 N   0  0  0  0  0  0  0  0  0  0  0  0
    5.7390    0.4330   19.5810 C   0  0  0  0  0  0  0  0  0  0  0  0
    4.8180    1.4560   19.8380 C   0  0  0  0  0  0  0  0  0  0  0  0
    4.3090    2.1630   18.7410 C   0  0  0  0  0  0  0  0  0  0  0  0
    4.7390    1.8390   17.4450 C   0  0  0  0  0  0  0  0  0  0  0  0
    5.5970    0.8260   17.1870 N   0  0  0  0  0  0  0  0  0  0  0  0
    6.0910    0.1510   18.2430 C   0  0  0  0  0  0  0  0  0  0  0  0
    9.7160    0.4130   23.4760 C   0  0  0  0  0  0  0  0  0  0  0  0
    9.3280    3.4390   22.9120 S   0  0  0  0  0  0  0  0  0  0  0  0
  1  2  1  0
  2 23  1  0
  2  3  2  0
  3  4  1  0
  4  5  2  0
  5  6  1  0
  5 23  1  0
  6  7  1  0
  7 22  1  0
  7  8  2  0
  8  9  1  0
  9 10  2  0
 10 11  1  0
 11 12  1  0
 11 22  2  0
 12 13  1  0
 13 14  2  0
 13 15  1  0
 15 16  1  0
 16 17  2  0
 16 21  1  0
 17 18  1  0
 18 19  2  0
 19 20  1  0
 20 21  2  0
M  END
>  <original SMILES>  (851) 
Nc1nnc(Sc2cccc(NC(=O)Nc3cccnc3)c2)s1

>  <AutoDock Predicted Affinity>  (851) 
-5.22522

>  <ref_pdb>  (851) 
x0434_0

>  <ref_mols>  (851) 
x0434_0

>  <creator>  (851) 
Will Poole

>  <energy minimised>  (851) 
True

$$$$
WPC1549_minimised.pdb
     RDKit          3D

 24 26  0  0  0  0  0  0  0  0999 V2000
    9.3700    3.9240   23.3700 N   0  0  0  0  0  0  0  0  0  0  0  0
   10.5890    4.4610   23.5380 C   0  0  0  0  0  0  0  0  0  0  0  0
   10.7880    5.7640   23.4790 N   0  0  0  0  0  0  0  0  0  0  0  0
   12.1940    5.9400   23.5780 O   0  0  0  0  0  0  0  0  0  0  0  0
   12.7300    4.7010   23.6320 C   0  0  0  0  0  0  0  0  0  0  0  0
   14.0810    4.5820   23.6560 N   0  0  0  0  0  0  0  0  0  0  0  0
   11.7910    3.7350   23.6750 C   0  0  0  0  0  0  0  0  0  0  0  0
   11.9430    2.2820   24.0900 C   0  0  0  0  0  0  0  0  0  0  0  0
   11.4980    1.1740   23.1550 C   0  0  0  0  0  0  0  0  0  0  0  0
   12.4620    0.3860   22.4970 C   0  0  0  0  0  0  0  0  0  0  0  0
   12.0730   -0.7380   21.7520 C   0  0  0  0  0  0  0  0  0  0  0  0
   10.7120   -1.0550   21.6370 C   0  0  0  0  0  0  0  0  0  0  0  0
    9.7490   -0.2600   22.2700 C   0  0  0  0  0  0  0  0  0  0  0  0
    8.3820   -0.4500   21.9970 N   0  0  0  0  0  0  0  0  0  0  0  0
    7.8480   -0.1910   20.7660 C   0  0  0  0  0  0  0  0  0  0  0  0
    8.5230    0.0160   19.7760 O   0  0  0  0  0  0  0  0  0  0  0  0
    6.4830   -0.1210   20.7450 N   0  0  0  0  0  0  0  0  0  0  0  0
    5.7470    0.4290   19.6680 C   0  0  0  0  0  0  0  0  0  0  0  0
    4.8180    1.4440   19.9270 C   0  0  0  0  0  0  0  0  0  0  0  0
    4.2360    2.0880   18.8280 C   0  0  0  0  0  0  0  0  0  0  0  0
    4.6100    1.7170   17.5280 C   0  0  0  0  0  0  0  0  0  0  0  0
    5.4680    0.7050   17.2700 N   0  0  0  0  0  0  0  0  0  0  0  0
    6.0290    0.0860   18.3270 C   0  0  0  0  0  0  0  0  0  0  0  0
   10.1420    0.8200   23.0670 C   0  0  0  0  0  0  0  0  0  0  0  0
  1  2  1  0
  2  3  2  0
  2  7  1  0
  3  4  1  0
  4  5  1  0
  5  6  1  0
  5  7  2  0
  7  8  1  0
  8  9  1  0
  9 24  1  0
  9 10  2  0
 10 11  1  0
 11 12  2  0
 12 13  1  0
 13 14  1  0
 13 24  2  0
 14 15  1  0
 15 16  2  0
 15 17  1  0
 17 18  1  0
 18 19  2  0
 18 23  1  0
 19 20  1  0
 20 21  2  0
 21 22  1  0
 22 23  2  0
M  END
>  <original SMILES>  (852) 
Nc1noc(N)c1Cc1cccc(NC(=O)Nc2cccnc2)c1

>  <AutoDock Predicted Affinity>  (852) 
-6.757685

>  <ref_pdb>  (852) 
x0434_0

>  <ref_mols>  (852) 
x0434_0

>  <creator>  (852) 
Will Poole

>  <energy minimised>  (852) 
True

$$$$
WPC1295_minimised.pdb
     RDKit          3D

 24 26  0  0  0  0  0  0  0  0999 V2000
   11.1710    3.1220   21.3660 N   0  0  0  0  0  0  0  0  0  0  0  0
   11.9550    4.0100   22.1200 N   0  0  0  0  0  0  0  0  0  0  0  0
   13.2870    4.1600   21.9470 N   0  0  0  0  0  0  0  0  0  0  0  0
   13.6790    4.9240   22.9340 N   0  0  0  0  0  0  0  0  0  0  0  0
   12.6580    5.2460   23.7930 N   0  0  0  0  0  0  0  0  0  0  0  0
   11.5870    4.7900   23.1890 C   0  0  0  0  0  0  0  0  0  0  0  0
   10.1100    4.4220   24.0640 S   0  0  0  0  0  0  0  0  0  0  0  0
   10.6630    2.9380   25.0020 C   0  0  0  0  0  0  0  0  0  0  0  0
   10.8230    1.7120   24.1250 C   0  0  0  0  0  0  0  0  0  0  0  0
   12.0930    1.2410   23.7410 C   0  0  0  0  0  0  0  0  0  0  0  0
   12.2050    0.1660   22.8440 C   0  0  0  0  0  0  0  0  0  0  0  0
   11.0480   -0.4530   22.3420 C   0  0  0  0  0  0  0  0  0  0  0  0
    9.7850    0.0060   22.7440 C   0  0  0  0  0  0  0  0  0  0  0  0
    8.6110   -0.4940   22.1560 N   0  0  0  0  0  0  0  0  0  0  0  0
    8.1520   -0.0680   20.9440 C   0  0  0  0  0  0  0  0  0  0  0  0
    8.8230    0.5790   20.1660 O   0  0  0  0  0  0  0  0  0  0  0  0
    6.8390   -0.3680   20.7220 N   0  0  0  0  0  0  0  0  0  0  0  0
    6.0790    0.1840   19.6670 C   0  0  0  0  0  0  0  0  0  0  0  0
    5.0700    1.1090   19.9630 C   0  0  0  0  0  0  0  0  0  0  0  0
    4.4250    1.7360   18.8900 C   0  0  0  0  0  0  0  0  0  0  0  0
    4.8030    1.4200   17.5770 C   0  0  0  0  0  0  0  0  0  0  0  0
    5.7530    0.5050   17.2840 N   0  0  0  0  0  0  0  0  0  0  0  0
    6.3950   -0.0760   18.3180 C   0  0  0  0  0  0  0  0  0  0  0  0
    9.6740    1.0810   23.6330 C   0  0  0  0  0  0  0  0  0  0  0  0
  1  2  1  0
  2  3  1  0
  2  6  1  0
  3  4  2  0
  4  5  1  0
  5  6  2  0
  6  7  1  0
  7  8  1  0
  8  9  1  0
  9 24  1  0
  9 10  2  0
 10 11  1  0
 11 12  2  0
 12 13  1  0
 13 14  1  0
 13 24  2  0
 14 15  1  0
 15 16  2  0
 15 17  1  0
 17 18  1  0
 18 19  2  0
 18 23  1  0
 19 20  1  0
 20 21  2  0
 21 22  1  0
 22 23  2  0
M  END
>  <original SMILES>  (853) 
Nn1nnnc1SCc1cccc(NC(=O)Nc2cccnc2)c1

>  <AutoDock Predicted Affinity>  (853) 
-6.17779

>  <ref_pdb>  (853) 
x0434_0

>  <ref_mols>  (853) 
x0434_0

>  <creator>  (853) 
Will Poole

>  <energy minimised>  (853) 
True

$$$$
WPC1188_minimised.pdb
     RDKit          3D

 23 24  0  0  0  0  0  0  0  0999 V2000
   12.7610    5.3060   24.5850 O   0  0  0  0  0  0  0  0  0  0  0  0
   12.5630    4.9490   23.4380 C   0  0  0  0  0  0  0  0  0  0  0  0
   13.6910    4.8640   22.4010 C   0  0  0  0  0  0  0  0  0  0  0  0
   13.3190    5.3240   21.0880 O   0  0  0  0  0  0  0  0  0  0  0  0
   11.3300    4.4820   23.0360 N   0  0  0  0  0  0  0  0  0  0  0  0
   10.2820    4.1020   23.9840 C   0  0  0  0  0  0  0  0  0  0  0  0
   10.6170    2.7620   24.6690 C   0  0  0  0  0  0  0  0  0  0  0  0
   10.6810    1.5790   23.7220 C   0  0  0  0  0  0  0  0  0  0  0  0
   11.9100    1.0430   23.2950 C   0  0  0  0  0  0  0  0  0  0  0  0
   11.9350   -0.0540   22.4140 C   0  0  0  0  0  0  0  0  0  0  0  0
   10.7290   -0.6120   21.9570 C   0  0  0  0  0  0  0  0  0  0  0  0
    9.5070   -0.0790   22.3940 C   0  0  0  0  0  0  0  0  0  0  0  0
    8.2770   -0.5300   21.8860 N   0  0  0  0  0  0  0  0  0  0  0  0
    7.8680   -0.2530   20.6160 C   0  0  0  0  0  0  0  0  0  0  0  0
    8.6210    0.0480   19.7110 O   0  0  0  0  0  0  0  0  0  0  0  0
    6.5080   -0.2450   20.4860 N   0  0  0  0  0  0  0  0  0  0  0  0
    5.8300    0.3970   19.4240 C   0  0  0  0  0  0  0  0  0  0  0  0
    4.8740    1.3760   19.7200 C   0  0  0  0  0  0  0  0  0  0  0  0
    4.3460    2.1120   18.6520 C   0  0  0  0  0  0  0  0  0  0  0  0
    4.8030    1.8700   17.3490 C   0  0  0  0  0  0  0  0  0  0  0  0
    5.6940    0.8980   17.0530 N   0  0  0  0  0  0  0  0  0  0  0  0
    6.2000    0.1860   18.0800 C   0  0  0  0  0  0  0  0  0  0  0  0
    9.4840    1.0050   23.2750 C   0  0  0  0  0  0  0  0  0  0  0  0
  1  2  2  0
  2  3  1  0
  2  5  1  0
  3  4  1  0
  5  6  1  0
  6  7  1  0
  7  8  1  0
  8 23  2  0
  8  9  1  0
  9 10  2  0
 10 11  1  0
 11 12  2  0
 12 13  1  0
 12 23  1  0
 13 14  1  0
 14 15  2  0
 14 16  1  0
 16 17  1  0
 17 18  2  0
 17 22  1  0
 18 19  1  0
 19 20  2  0
 20 21  1  0
 21 22  2  0
M  END
>  <original SMILES>  (854) 
O=C(CO)NCCc1cccc(NC(=O)Nc2cccnc2)c1

>  <AutoDock Predicted Affinity>  (854) 
-6.411407

>  <ref_pdb>  (854) 
x0434_0

>  <ref_mols>  (854) 
x0434_0

>  <creator>  (854) 
Will Poole

>  <energy minimised>  (854) 
True

$$$$
WPC1754_minimised.pdb
     RDKit          3D

 24 26  0  0  0  0  0  0  0  0999 V2000
   10.7770    5.5810   24.9180 O   0  0  0  0  0  0  0  0  0  0  0  0
   11.1810    5.3240   23.8010 C   0  0  0  0  0  0  0  0  0  0  0  0
   12.6800    5.2690   23.5240 C   0  0  0  0  0  0  0  0  0  0  0  0
   13.2220    4.1910   22.1200 S   0  0  0  0  0  0  0  0  0  0  0  0
   12.9080    2.4870   22.5720 C   0  0  0  0  0  0  0  0  0  0  0  0
   13.9690    1.5820   22.7260 C   0  0  0  0  0  0  0  0  0  0  0  0
   13.7050    0.2110   22.8990 C   0  0  0  0  0  0  0  0  0  0  0  0
   12.3800   -0.2660   22.8960 C   0  0  0  0  0  0  0  0  0  0  0  0
   11.3170    0.6330   22.7460 C   0  0  0  0  0  0  0  0  0  0  0  0
    9.9820    0.1730   22.5970 N   0  0  0  0  0  0  0  0  0  0  0  0
    9.2350    0.4260   21.4740 C   0  0  0  0  0  0  0  0  0  0  0  0
    9.7040    0.9950   20.5160 O   0  0  0  0  0  0  0  0  0  0  0  0
    7.9160    0.0470   21.4680 N   0  0  0  0  0  0  0  0  0  0  0  0
    7.0360    0.3800   20.3970 C   0  0  0  0  0  0  0  0  0  0  0  0
    5.9970    1.2970   20.6090 C   0  0  0  0  0  0  0  0  0  0  0  0
    5.2750    1.7450   19.4920 C   0  0  0  0  0  0  0  0  0  0  0  0
    5.5980    1.2590   18.2150 C   0  0  0  0  0  0  0  0  0  0  0  0
    6.5640    0.3390   18.0030 N   0  0  0  0  0  0  0  0  0  0  0  0
    7.2860   -0.0590   19.0760 C   0  0  0  0  0  0  0  0  0  0  0  0
   11.5960    2.0000   22.5960 C   0  0  0  0  0  0  0  0  0  0  0  0
   10.2980    5.0910   22.7740 N   0  0  0  0  0  0  0  0  0  0  0  0
    8.9030    4.8430   23.0080 C   0  0  0  0  0  0  0  0  0  0  0  0
    8.3760    3.6980   22.1820 C   0  0  0  0  0  0  0  0  0  0  0  0
    7.9880    5.1080   21.8440 C   0  0  0  0  0  0  0  0  0  0  0  0
  1  2  2  0
  2  3  1  0
  2 21  1  0
  3  4  1  0
  4  5  1  0
  5  6  2  0
  5 20  1  0
  6  7  1  0
  7  8  2  0
  8  9  1  0
  9 10  1  0
  9 20  2  0
 10 11  1  0
 11 13  1  0
 11 12  2  0
 13 14  1  0
 14 15  2  0
 14 19  1  0
 15 16  1  0
 16 17  2  0
 17 18  1  0
 18 19  2  0
 21 22  1  0
 22 23  1  0
 22 24  1  0
 23 24  1  0
M  END
>  <original SMILES>  (855) 
O=C(CSc1cccc(NC(=O)Nc2cccnc2)c1)NC1CC1

>  <AutoDock Predicted Affinity>  (855) 
-5.359246

>  <ref_pdb>  (855) 
x0434_0

>  <ref_mols>  (855) 
x0434_0

>  <creator>  (855) 
Will Poole

>  <energy minimised>  (855) 
True

$$$$
WPC1459_minimised.pdb
     RDKit          3D

 23 24  0  0  1  0  0  0  0  0999 V2000
    9.4400    0.7790   20.7970 O   0  0  0  0  0  0  0  0  0  0  0  0
    8.8500   -0.0880   21.4040 C   0  0  0  0  0  0  0  0  0  0  0  0
    7.5810   -0.5210   21.0690 N   0  0  0  0  0  0  0  0  0  0  0  0
    6.7970    0.0250   20.0160 C   0  0  0  0  0  0  0  0  0  0  0  0
    5.6220    0.7480   20.3000 C   0  0  0  0  0  0  0  0  0  0  0  0
    4.9360    1.3730   19.2440 C   0  0  0  0  0  0  0  0  0  0  0  0
    5.4050    1.2110   17.9360 C   0  0  0  0  0  0  0  0  0  0  0  0
    6.5280    0.5120   17.6560 N   0  0  0  0  0  0  0  0  0  0  0  0
    7.2180   -0.0370   18.6750 C   0  0  0  0  0  0  0  0  0  0  0  0
    9.4560   -0.7580   22.4510 N   0  0  0  0  0  0  0  0  0  0  0  0
   10.8280   -0.5630   22.7430 C   0  0  0  0  0  0  0  0  0  0  0  0
   11.7940   -1.3060   22.0490 C   0  0  0  0  0  0  0  0  0  0  0  0
   13.1650   -1.1790   22.3100 C   0  0  0  0  0  0  0  0  0  0  0  0
   13.5440   -0.1230   23.1550 C   0  0  0  0  0  0  0  0  0  0  0  0
   12.6210    0.8800   23.5150 C   0  0  1  0  0  0  0  0  0  0  0  0
   12.8950    2.1810   22.3800 S   0  0  0  0  0  0  0  0  0  0  0  0
   12.9220    3.9240   22.9730 C   0  0  0  0  0  0  0  0  0  0  0  0
   11.6570    4.5970   22.4980 C   0  0  0  0  0  0  0  0  0  0  0  0
   10.7970    4.5830   23.9260 P   0  0  0  0  0  0  0  0  0  0  0  0
   10.1150    5.8350   24.6170 O   0  0  0  0  0  0  0  0  0  0  0  0
   11.3670    5.7460   24.7220 O   0  0  0  0  0  0  0  0  0  0  0  0
   10.4430    3.5200   24.9960 O   0  0  0  0  0  0  0  0  0  0  0  0
   11.2570    0.5380   23.5200 C   0  0  0  0  0  0  0  0  0  0  0  0
  1  2  2  0
  2 10  1  0
  2  3  1  0
  3  4  1  0
  4  5  2  0
  4  9  1  0
  5  6  1  0
  6  7  2  0
  7  8  1  0
  8  9  2  0
 10 11  1  0
 11 12  2  0
 11 23  1  0
 12 13  1  0
 13 14  2  0
 14 15  1  0
 15 16  1  6
 15 23  1  0
 16 17  1  0
 17 18  1  0
 18 19  1  0
 19 20  2  0
 19 21  1  0
 19 22  1  0
M  END
>  <original SMILES>  (856) 
O=C(NC1=CC=CC(SCCP(=O)(O)O)C1)Nc1cccnc1

>  <AutoDock Predicted Affinity>  (856) 
-5.15044

>  <ref_pdb>  (856) 
x0434_0

>  <ref_mols>  (856) 
x0434_0

>  <creator>  (856) 
Will Poole

>  <energy minimised>  (856) 
True

$$$$
WPC1283_minimised.pdb
     RDKit          3D

 22 23  0  0  1  0  0  0  0  0999 V2000
    9.4370    0.6610   20.7030 O   0  0  0  0  0  0  0  0  0  0  0  0
    8.8300   -0.2320   21.3870 C   0  0  0  0  0  0  0  0  0  0  0  0
    7.5660   -0.5230   21.0560 N   0  0  0  0  0  0  0  0  0  0  0  0
    6.8010    0.0430   20.0010 C   0  0  0  0  0  0  0  0  0  0  0  0
    5.6260    0.7490   20.2840 C   0  0  0  0  0  0  0  0  0  0  0  0
    4.9730    1.3860   19.2150 C   0  0  0  0  0  0  0  0  0  0  0  0
    5.4890    1.2580   17.9170 C   0  0  0  0  0  0  0  0  0  0  0  0
    6.5950    0.5510   17.6270 N   0  0  0  0  0  0  0  0  0  0  0  0
    7.2790    0.0040   18.6570 C   0  0  0  0  0  0  0  0  0  0  0  0
    9.4350   -0.8700   22.4170 N   0  0  0  0  0  0  0  0  0  0  0  0
   10.7580   -0.5710   22.7810 C   0  0  0  0  0  0  0  0  0  0  0  0
   11.7990   -1.1730   22.0450 C   0  0  0  0  0  0  0  0  0  0  0  0
   13.1320   -0.7310   22.3330 C   0  0  0  0  0  0  0  0  0  0  0  0
   13.3120    0.4500   23.0760 C   0  0  0  0  0  0  0  0  0  0  0  0
   12.2100    1.2770   23.5120 C   0  0  1  0  0  0  0  0  0  0  0  0
   11.9730    2.7380   22.3850 S   0  0  0  0  0  0  0  0  0  0  0  0
   12.0700    4.2560   23.3610 C   0  0  0  0  0  0  0  0  0  0  0  0
   10.4560    5.1440   23.1890 P   0  0  0  0  0  0  0  0  0  0  0  0
   10.1260    6.1130   24.5190 O   0  0  0  0  0  0  0  0  0  0  0  0
    9.2730    4.1170   22.8590 O   0  0  0  0  0  0  0  0  0  0  0  0
   10.3270    4.9030   24.6730 O   0  0  0  0  0  0  0  0  0  0  0  0
   10.9870    0.5750   23.6280 C   0  0  0  0  0  0  0  0  0  0  0  0
  1  2  2  0
  2 10  1  0
  2  3  1  0
  3  4  1  0
  4  5  2  0
  4  9  1  0
  5  6  1  0
  6  7  2  0
  7  8  1  0
  8  9  2  0
 10 11  1  0
 11 12  2  0
 11 22  1  0
 12 13  1  0
 13 14  2  0
 14 15  1  0
 15 16  1  6
 15 22  1  0
 16 17  1  0
 17 18  1  0
 18 19  2  0
 18 20  1  0
 18 21  1  0
M  END
>  <original SMILES>  (857) 
O=C(NC1=CC=CC(SCP(=O)(O)O)C1)Nc1cccnc1

>  <AutoDock Predicted Affinity>  (857) 
-4.95236

>  <ref_pdb>  (857) 
x0434_0

>  <ref_mols>  (857) 
x0434_0

>  <creator>  (857) 
Will Poole

>  <energy minimised>  (857) 
True

$$$$
WPC1589_minimised.pdb
     RDKit          3D

 21 22  0  0  1  0  0  0  0  0999 V2000
    9.3310    0.7830   20.8410 O   0  0  0  0  0  0  0  0  0  0  0  0
    8.7230   -0.2710   21.4210 C   0  0  0  0  0  0  0  0  0  0  0  0
    7.5390   -0.6070   20.9950 N   0  0  0  0  0  0  0  0  0  0  0  0
    6.7840   -0.0150   19.9180 C   0  0  0  0  0  0  0  0  0  0  0  0
    5.5530    0.6060   20.1340 C   0  0  0  0  0  0  0  0  0  0  0  0
    4.8990    1.2460   19.0730 C   0  0  0  0  0  0  0  0  0  0  0  0
    5.5080    1.2470   17.8190 C   0  0  0  0  0  0  0  0  0  0  0  0
    6.6780    0.6220   17.5870 N   0  0  0  0  0  0  0  0  0  0  0  0
    7.3190    0.0490   18.6290 C   0  0  0  0  0  0  0  0  0  0  0  0
    9.4230   -0.9090   22.3720 N   0  0  0  0  0  0  0  0  0  0  0  0
   10.7220   -0.5970   22.8560 C   0  0  0  0  0  0  0  0  0  0  0  0
   11.8230   -0.9280   22.0540 C   0  0  0  0  0  0  0  0  0  0  0  0
   13.0970   -0.4110   22.3780 C   0  0  0  0  0  0  0  0  0  0  0  0
   13.1630    0.5730   23.3500 C   0  0  0  0  0  0  0  0  0  0  0  0
   11.9420    1.1600   23.8460 C   0  0  1  0  0  0  0  0  0  0  0  0
   10.8460    2.6600   23.1010 S   0  0  0  0  0  0  0  0  0  0  0  0
   12.0900    3.7440   24.0200 S   0  0  0  0  0  0  0  0  0  0  0  0
   13.1750    3.7330   23.0820 O   0  0  0  0  0  0  0  0  0  0  0  0
   11.8620    4.8790   24.8160 O   0  0  0  0  0  0  0  0  0  0  0  0
   10.5660    3.6980   23.4220 O   0  0  0  0  0  0  0  0  0  0  0  0
   10.8490    0.2410   23.9280 C   0  0  0  0  0  0  0  0  0  0  0  0
  1  2  2  0
  2 10  1  0
  2  3  1  0
  3  4  1  0
  4  5  2  0
  4  9  1  0
  5  6  1  0
  6  7  2  0
  7  8  1  0
  8  9  2  0
 10 11  1  0
 11 12  2  0
 11 21  1  0
 12 13  1  0
 13 14  2  0
 14 15  1  0
 15 16  1  6
 15 21  1  0
 16 17  1  0
 17 18  2  0
 17 19  2  0
 17 20  1  0
M  END
>  <original SMILES>  (858) 
O=C(NC1=CC=CC(SS(=O)(=O)O)C1)Nc1cccnc1

>  <AutoDock Predicted Affinity>  (858) 
-6.62663

>  <ref_pdb>  (858) 
x0434_0

>  <ref_mols>  (858) 
x0434_0

>  <creator>  (858) 
Will Poole

>  <energy minimised>  (858) 
True

$$$$
WPC1450_minimised.pdb
     RDKit          3D

 23 24  0  0  1  0  0  0  0  0999 V2000
    9.4230    0.7430   20.8030 O   0  0  0  0  0  0  0  0  0  0  0  0
    8.8630   -0.1020   21.4190 C   0  0  0  0  0  0  0  0  0  0  0  0
    7.5970   -0.5260   21.0740 N   0  0  0  0  0  0  0  0  0  0  0  0
    6.8190    0.0210   20.0130 C   0  0  0  0  0  0  0  0  0  0  0  0
    5.6200    0.7270   20.2960 C   0  0  0  0  0  0  0  0  0  0  0  0
    4.9480    1.3740   19.2340 C   0  0  0  0  0  0  0  0  0  0  0  0
    5.4370    1.2250   17.9250 C   0  0  0  0  0  0  0  0  0  0  0  0
    6.5550    0.5170   17.6390 N   0  0  0  0  0  0  0  0  0  0  0  0
    7.2400   -0.0280   18.6750 C   0  0  0  0  0  0  0  0  0  0  0  0
    9.4640   -0.8260   22.4200 N   0  0  0  0  0  0  0  0  0  0  0  0
   10.8330   -0.5560   22.7170 C   0  0  0  0  0  0  0  0  0  0  0  0
   11.8150   -1.2820   22.0450 C   0  0  0  0  0  0  0  0  0  0  0  0
   13.1910   -1.0860   22.2670 C   0  0  0  0  0  0  0  0  0  0  0  0
   13.5290   -0.1640   23.2330 C   0  0  0  0  0  0  0  0  0  0  0  0
   12.6040    0.8160   23.5880 C   0  0  1  0  0  0  0  0  0  0  0  0
   12.7690    2.2210   22.5280 S   0  0  0  0  0  0  0  0  0  0  0  0
   12.9270    3.9150   22.9710 C   0  0  0  0  0  0  0  0  0  0  0  0
   11.6490    4.6250   22.5380 C   0  0  0  0  0  0  0  0  0  0  0  0
   10.6560    4.6030   23.9600 P   0  0  0  0  0  0  0  0  0  0  0  0
   10.0450    5.8920   24.6760 O   0  0  0  0  0  0  0  0  0  0  0  0
   10.3570    3.4820   24.9970 O   0  0  0  0  0  0  0  0  0  0  0  0
   11.2400    5.6870   24.8020 O   0  0  0  0  0  0  0  0  0  0  0  0
   11.2560    0.4250   23.6410 C   0  0  0  0  0  0  0  0  0  0  0  0
  1  2  2  0
  2 10  1  0
  2  3  1  0
  3  4  1  0
  4  5  2  0
  4  9  1  0
  5  6  1  0
  6  7  2  0
  7  8  1  0
  8  9  2  0
 10 11  1  0
 11 12  2  0
 11 23  1  0
 12 13  1  0
 13 14  1  0
 14 15  1  0
 15 16  1  6
 15 23  1  0
 16 17  1  0
 17 18  1  0
 18 19  1  0
 19 20  2  0
 19 21  1  0
 19 22  1  0
M  END
>  <original SMILES>  (859) 
O=C(NC1=CCCC(SCCP(=O)(O)O)C1)Nc1cccnc1

>  <AutoDock Predicted Affinity>  (859) 
-5.2823

>  <ref_pdb>  (859) 
x0434_0

>  <ref_mols>  (859) 
x0434_0

>  <creator>  (859) 
Will Poole

>  <energy minimised>  (859) 
True

$$$$
WPC1280_minimised.pdb
     RDKit          3D

 22 23  0  0  1  0  0  0  0  0999 V2000
    9.3710    0.8060   20.8100 O   0  0  0  0  0  0  0  0  0  0  0  0
    8.7870   -0.1580   21.3730 C   0  0  0  0  0  0  0  0  0  0  0  0
    7.5340   -0.5730   21.0430 N   0  0  0  0  0  0  0  0  0  0  0  0
    6.7920   -0.0180   20.0010 C   0  0  0  0  0  0  0  0  0  0  0  0
    5.6030    0.6760   20.2470 C   0  0  0  0  0  0  0  0  0  0  0  0
    4.9380    1.3100   19.1960 C   0  0  0  0  0  0  0  0  0  0  0  0
    5.4640    1.2390   17.8980 C   0  0  0  0  0  0  0  0  0  0  0  0
    6.6010    0.5450   17.6500 N   0  0  0  0  0  0  0  0  0  0  0  0
    7.2640   -0.0360   18.6580 C   0  0  0  0  0  0  0  0  0  0  0  0
    9.4030   -0.8420   22.3700 N   0  0  0  0  0  0  0  0  0  0  0  0
   10.7190   -0.6030   22.8280 C   0  0  0  0  0  0  0  0  0  0  0  0
   11.8190   -1.1520   22.1720 C   0  0  0  0  0  0  0  0  0  0  0  0
   13.1210   -0.6590   22.3230 C   0  0  0  0  0  0  0  0  0  0  0  0
   13.3220    0.3140   23.3680 C   0  0  0  0  0  0  0  0  0  0  0  0
   12.2130    0.9980   23.8660 C   0  0  1  0  0  0  0  0  0  0  0  0
   12.0010    2.3640   22.7330 S   0  0  0  0  0  0  0  0  0  0  0  0
   12.0760    3.9980   23.3980 C   0  0  0  0  0  0  0  0  0  0  0  0
   10.5430    4.6730   23.6360 P   0  0  0  0  0  0  0  0  0  0  0  0
   10.3480    5.7950   24.7700 O   0  0  0  0  0  0  0  0  0  0  0  0
   10.4340    6.1400   23.6730 O   0  0  0  0  0  0  0  0  0  0  0  0
    9.2530    3.8960   23.2270 O   0  0  0  0  0  0  0  0  0  0  0  0
   10.9560    0.3310   23.8870 C   0  0  0  0  0  0  0  0  0  0  0  0
  1  2  2  0
  2 10  1  0
  2  3  1  0
  3  4  1  0
  4  5  2  0
  4  9  1  0
  5  6  1  0
  6  7  2  0
  7  8  1  0
  8  9  2  0
 10 11  1  0
 11 12  2  0
 11 22  1  0
 12 13  1  0
 13 14  1  0
 14 15  1  0
 15 16  1  6
 15 22  1  0
 16 17  1  0
 17 18  1  0
 18 19  2  0
 18 20  1  0
 18 21  1  0
M  END
>  <original SMILES>  (860) 
O=C(NC1=CCCC(SCP(=O)(O)O)C1)Nc1cccnc1

>  <AutoDock Predicted Affinity>  (860) 
-5.71589

>  <ref_pdb>  (860) 
x0434_0

>  <ref_mols>  (860) 
x0434_0

>  <creator>  (860) 
Will Poole

>  <energy minimised>  (860) 
True

$$$$
WPC1946_minimised.pdb
     RDKit          3D

 21 22  0  0  0  0  0  0  0  0999 V2000
    8.7710    0.4290   20.1700 O   0  0  0  0  0  0  0  0  0  0  0  0
    8.3750   -0.4580   20.8350 C   0  0  0  0  0  0  0  0  0  0  0  0
    7.0410   -0.8520   20.6990 N   0  0  0  0  0  0  0  0  0  0  0  0
    6.2130   -0.1650   19.7800 C   0  0  0  0  0  0  0  0  0  0  0  0
    5.1860    0.6870   20.2050 C   0  0  0  0  0  0  0  0  0  0  0  0
    4.5780    1.5130   19.2220 C   0  0  0  0  0  0  0  0  0  0  0  0
    4.8650    1.2560   17.8400 C   0  0  0  0  0  0  0  0  0  0  0  0
    5.9030    0.4610   17.4320 N   0  0  0  0  0  0  0  0  0  0  0  0
    6.4380   -0.3130   18.3970 C   0  0  0  0  0  0  0  0  0  0  0  0
    9.0720   -1.1360   21.8300 N   0  0  0  0  0  0  0  0  0  0  0  0
   10.3630   -0.6090   22.2510 C   0  0  0  0  0  0  0  0  0  0  0  0
   11.5210   -1.2450   21.7490 C   0  0  0  0  0  0  0  0  0  0  0  0
   12.7840   -0.7840   22.1630 C   0  0  0  0  0  0  0  0  0  0  0  0
   12.8540    0.4670   22.9130 C   0  0  0  0  0  0  0  0  0  0  0  0
   11.7300    1.1350   23.4930 C   0  0  0  0  0  0  0  0  0  0  0  0
   11.6870    2.2950   24.4990 C   0  0  0  0  0  0  0  0  0  0  0  0
   11.2610    4.1630   24.0370 P   0  0  0  0  0  0  0  0  0  0  0  0
   12.4410    5.0520   23.8440 O   0  0  0  0  0  0  0  0  0  0  0  0
   11.4230    3.6620   22.4100 O   0  0  0  0  0  0  0  0  0  0  0  0
   10.5720    3.4410   22.5710 O   0  0  0  0  0  0  0  0  0  0  0  0
   10.4870    0.5290   23.1560 C   0  0  0  0  0  0  0  0  0  0  0  0
  1  2  2  0
  2 10  1  0
  2  3  1  0
  3  4  1  0
  4  5  1  0
  4  9  2  0
  5  6  1  0
  6  7  2  0
  7  8  1  0
  8  9  1  0
 10 11  1  0
 11 12  2  0
 11 21  1  0
 12 13  1  0
 13 14  2  0
 14 15  1  0
 15 16  1  0
 15 21  2  0
 16 17  1  0
 17 18  2  0
 17 19  1  0
 17 20  1  0
M  END
>  <original SMILES>  (861) 
O=C(NC1=CNC=CC1)Nc1cccc(CP(=O)(O)O)c1

>  <AutoDock Predicted Affinity>  (861) 
-5.62303

>  <ref_pdb>  (861) 
x0434_0

>  <ref_mols>  (861) 
x0434_0

>  <creator>  (861) 
Will Poole

>  <energy minimised>  (861) 
True

$$$$
WPC1947_minimised.pdb
     RDKit          3D

 21 22  0  0  1  0  0  0  0  0999 V2000
    8.7510    0.4240   20.1190 O   0  0  0  0  0  0  0  0  0  0  0  0
    8.3120   -0.4910   20.9540 C   0  0  0  0  0  0  0  0  0  0  0  0
    7.1270   -0.7700   20.6790 N   0  0  0  0  0  0  0  0  0  0  0  0
    6.2220   -0.1300   19.7780 C   0  0  2  0  0  0  0  0  0  0  0  0
    5.1180    0.6170   20.1850 C   0  0  0  0  0  0  0  0  0  0  0  0
    4.6670    1.5810   19.2380 C   0  0  0  0  0  0  0  0  0  0  0  0
    4.8430    1.2300   17.8330 C   0  0  0  0  0  0  0  0  0  0  0  0
    5.9380    0.4880   17.3970 N   0  0  0  0  0  0  0  0  0  0  0  0
    6.4330   -0.3290   18.3690 C   0  0  0  0  0  0  0  0  0  0  0  0
    9.1260   -1.1430   21.7800 N   0  0  0  0  0  0  0  0  0  0  0  0
   10.2800   -0.5990   22.2570 C   0  0  0  0  0  0  0  0  0  0  0  0
   11.4240   -1.1580   21.7240 C   0  0  0  0  0  0  0  0  0  0  0  0
   12.6920   -0.7510   22.1310 C   0  0  0  0  0  0  0  0  0  0  0  0
   12.8950    0.4520   22.8460 C   0  0  0  0  0  0  0  0  0  0  0  0
   11.7160    1.0120   23.4400 C   0  0  0  0  0  0  0  0  0  0  0  0
   11.7950    2.1620   24.4060 C   0  0  0  0  0  0  0  0  0  0  0  0
   11.2490    3.9730   23.9730 P   0  0  0  0  0  0  0  0  0  0  0  0
   12.3590    4.8190   23.9330 O   0  0  0  0  0  0  0  0  0  0  0  0
   11.4080    3.6450   22.2820 O   0  0  0  0  0  0  0  0  0  0  0  0
   10.4170    3.7360   22.6760 O   0  0  0  0  0  0  0  0  0  0  0  0
   10.4600    0.5340   23.0730 C   0  0  0  0  0  0  0  0  0  0  0  0
  1  2  2  0
  2 10  1  0
  2  3  1  0
  4  3  1  1
  4  5  1  0
  4  9  1  0
  5  6  1  0
  6  7  1  0
  7  8  1  0
  8  9  1  0
 10 11  1  0
 11 12  2  0
 11 21  1  0
 12 13  1  0
 13 14  2  0
 14 15  1  0
 15 16  1  0
 15 21  2  0
 16 17  1  0
 17 18  2  0
 17 19  1  0
 17 20  1  0
M  END
>  <original SMILES>  (862) 
O=C(Nc1cccc(CP(=O)(O)O)c1)NC1CCCNC1

>  <AutoDock Predicted Affinity>  (862) 
-5.74946

>  <ref_pdb>  (862) 
x0434_0

>  <ref_mols>  (862) 
x0434_0

>  <creator>  (862) 
Will Poole

>  <energy minimised>  (862) 
True

$$$$
WPC1941_minimised.pdb
     RDKit          3D

 21 22  0  0  1  0  0  0  0  0999 V2000
    8.9860    0.4680   20.6200 O   0  0  0  0  0  0  0  0  0  0  0  0
    8.7000   -0.4780   21.1200 C   0  0  0  0  0  0  0  0  0  0  0  0
    7.3570   -0.7190   20.9070 N   0  0  0  0  0  0  0  0  0  0  0  0
    6.5850   -0.0680   19.8530 C   0  0  0  0  0  0  0  0  0  0  0  0
    5.4540    0.7480   20.1900 C   0  0  0  0  0  0  0  0  0  0  0  0
    4.8200    1.5230   19.1420 C   0  0  0  0  0  0  0  0  0  0  0  0
    5.3010    1.3840   17.7950 C   0  0  0  0  0  0  0  0  0  0  0  0
    6.3870    0.6200   17.4440 N   0  0  0  0  0  0  0  0  0  0  0  0
    6.9410   -0.0990   18.4840 C   0  0  0  0  0  0  0  0  0  0  0  0
    9.4000   -1.2770   21.9820 N   0  0  0  0  0  0  0  0  0  0  0  0
   10.6400   -0.7490   22.4560 C   0  0  0  0  0  0  0  0  0  0  0  0
   11.8270   -1.4460   21.9190 C   0  0  0  0  0  0  0  0  0  0  0  0
   12.9800   -0.5630   21.8210 C   0  0  0  0  0  0  0  0  0  0  0  0
   13.0400    0.4630   22.8080 C   0  0  0  0  0  0  0  0  0  0  0  0
   11.8540    0.8930   23.4610 C   0  0  0  0  0  0  0  0  0  0  0  0
   11.7900    2.2310   24.3480 C   0  0  0  0  0  0  0  0  0  0  0  0
   11.5450    3.6970   22.9680 P   0  0  0  0  0  0  0  0  0  0  0  0
   12.4200    4.9290   22.9820 O   0  0  0  0  0  0  0  0  0  0  0  0
   12.0000    4.8300   24.0190 O   0  0  0  0  0  0  0  0  0  0  0  0
    9.9400    4.0290   22.5820 O   0  0  0  0  0  0  0  0  0  0  0  0
   10.6560    0.2860   23.2760 C   0  0  0  0  0  0  0  0  0  0  0  0
  1  2  2  0
  2 10  1  0
  2  3  1  0
  3  4  1  0
  4  5  2  0
  4  9  1  0
  5  6  1  0
  6  7  2  0
  7  8  1  0
  8  9  2  0
 11 10  1  0
 11 12  1  0
 11 21  1  0
 12 13  1  0
 13 14  1  0
 14 15  1  0
 15 16  1  0
 15 21  2  0
 16 17  1  0
 17 18  2  0
 17 19  1  0
 17 20  1  0
M  END
>  <original SMILES>  (863) 
O=C(Nc1cccnc1)NC1C=C(CP(=O)(O)O)CCC1

>  <AutoDock Predicted Affinity>  (863) 
-5.55721

>  <ref_pdb>  (863) 
x0434_0

>  <ref_mols>  (863) 
x0434_0

>  <creator>  (863) 
Will Poole

>  <energy minimised>  (863) 
True

$$$$
WPC1449_minimised.pdb
     RDKit          3D

 23 24  0  0  1  0  0  0  0  0999 V2000
    9.3710    0.5680   20.7700 O   0  0  0  0  0  0  0  0  0  0  0  0
    8.8770   -0.3060   21.3140 C   0  0  0  0  0  0  0  0  0  0  0  0
    7.5260   -0.6010   21.0410 N   0  0  0  0  0  0  0  0  0  0  0  0
    6.7800    0.0070   19.9910 C   0  0  0  0  0  0  0  0  0  0  0  0
    5.5920    0.7350   20.2600 C   0  0  0  0  0  0  0  0  0  0  0  0
    4.9310    1.3610   19.2030 C   0  0  0  0  0  0  0  0  0  0  0  0
    5.4320    1.2280   17.8930 C   0  0  0  0  0  0  0  0  0  0  0  0
    6.5380    0.5060   17.6050 N   0  0  0  0  0  0  0  0  0  0  0  0
    7.2040   -0.0440   18.6270 C   0  0  0  0  0  0  0  0  0  0  0  0
    9.4400   -1.1530   22.2970 N   0  0  0  0  0  0  0  0  0  0  0  0
   10.7130   -1.0690   22.7700 C   0  0  1  0  0  0  0  0  0  0  0  0
   11.8160   -1.3460   21.9280 C   0  0  0  0  0  0  0  0  0  0  0  0
   13.0740   -0.9330   22.1550 C   0  0  0  0  0  0  0  0  0  0  0  0
   13.3120    0.0250   23.1540 C   0  0  0  0  0  0  0  0  0  0  0  0
   12.1390    0.5900   23.7520 C   0  0  1  0  0  0  0  0  0  0  0  0
   11.7880    2.2130   22.9510 S   0  0  0  0  0  0  0  0  0  0  0  0
   11.8900    3.6050   23.9590 C   0  0  0  0  0  0  0  0  0  0  0  0
   10.3660    4.0590   24.2510 C   0  0  0  0  0  0  0  0  0  0  0  0
   10.0530    5.6490   23.2910 P   0  0  0  0  0  0  0  0  0  0  0  0
   11.3160    6.0420   22.7330 O   0  0  0  0  0  0  0  0  0  0  0  0
   11.0170    6.6260   23.7390 O   0  0  0  0  0  0  0  0  0  0  0  0
    8.8490    6.2970   22.5140 O   0  0  0  0  0  0  0  0  0  0  0  0
   10.9600   -0.1110   23.7890 C   0  0  0  0  0  0  0  0  0  0  0  0
  1  2  2  0
  2 10  1  0
  2  3  1  0
  3  4  1  0
  4  5  2  0
  4  9  1  0
  5  6  1  0
  6  7  2  0
  7  8  1  0
  8  9  2  0
 11 10  1  6
 11 12  1  0
 11 23  1  0
 12 13  2  0
 13 14  1  0
 14 15  1  0
 15 16  1  6
 15 23  1  0
 16 17  1  0
 17 18  1  0
 18 19  1  0
 19 20  2  0
 19 21  1  0
 19 22  1  0
M  END
>  <original SMILES>  (864) 
O=C(Nc1cccnc1)NC1C=CCC(SCCP(=O)(O)O)C1

>  <AutoDock Predicted Affinity>  (864) 
-4.934625

>  <ref_pdb>  (864) 
x0434_0

>  <ref_mols>  (864) 
x0434_0

>  <creator>  (864) 
Will Poole

>  <energy minimised>  (864) 
True

$$$$
WPC1279_minimised.pdb
     RDKit          3D

 22 23  0  0  1  0  0  0  0  0999 V2000
    9.4170    0.6570   20.7280 O   0  0  0  0  0  0  0  0  0  0  0  0
    8.8430   -0.1710   21.3450 C   0  0  0  0  0  0  0  0  0  0  0  0
    7.5360   -0.5480   21.0480 N   0  0  0  0  0  0  0  0  0  0  0  0
    6.8080    0.0350   19.9860 C   0  0  0  0  0  0  0  0  0  0  0  0
    5.6180    0.7250   20.2650 C   0  0  0  0  0  0  0  0  0  0  0  0
    4.9700    1.3550   19.2070 C   0  0  0  0  0  0  0  0  0  0  0  0
    5.4890    1.2590   17.9060 C   0  0  0  0  0  0  0  0  0  0  0  0
    6.6120    0.5550   17.6320 N   0  0  0  0  0  0  0  0  0  0  0  0
    7.2840    0.0070   18.6570 C   0  0  0  0  0  0  0  0  0  0  0  0
    9.4190   -0.8790   22.4130 N   0  0  0  0  0  0  0  0  0  0  0  0
   10.7400   -0.5820   22.7920 C   0  0  1  0  0  0  0  0  0  0  0  0
   11.8160   -1.1550   22.0660 C   0  0  0  0  0  0  0  0  0  0  0  0
   13.1270   -0.7440   22.3530 C   0  0  0  0  0  0  0  0  0  0  0  0
   13.3200    0.4300   23.1670 C   0  0  0  0  0  0  0  0  0  0  0  0
   12.1970    1.2050   23.5920 C   0  0  1  0  0  0  0  0  0  0  0  0
   12.0180    2.6550   22.5250 S   0  0  0  0  0  0  0  0  0  0  0  0
   12.1070    4.2040   23.4330 C   0  0  0  0  0  0  0  0  0  0  0  0
   10.4690    5.0070   23.2610 P   0  0  0  0  0  0  0  0  0  0  0  0
   10.1390    6.0590   24.5000 O   0  0  0  0  0  0  0  0  0  0  0  0
   10.2570    4.7230   24.7500 O   0  0  0  0  0  0  0  0  0  0  0  0
    9.3250    3.9890   22.8760 O   0  0  0  0  0  0  0  0  0  0  0  0
   10.9920    0.5330   23.6890 C   0  0  0  0  0  0  0  0  0  0  0  0
  1  2  2  0
  2 10  1  0
  2  3  1  0
  3  4  1  0
  4  5  2  0
  4  9  1  0
  5  6  1  0
  6  7  2  0
  7  8  1  0
  8  9  2  0
 11 10  1  6
 11 12  1  0
 11 22  1  0
 12 13  2  0
 13 14  1  0
 14 15  1  0
 15 16  1  6
 15 22  1  0
 16 17  1  0
 17 18  1  0
 18 19  2  0
 18 20  1  0
 18 21  1  0
M  END
>  <original SMILES>  (865) 
O=C(Nc1cccnc1)NC1C=CCC(SCP(=O)(O)O)C1

>  <AutoDock Predicted Affinity>  (865) 
-5.22924

>  <ref_pdb>  (865) 
x0434_0

>  <ref_mols>  (865) 
x0434_0

>  <creator>  (865) 
Will Poole

>  <energy minimised>  (865) 
True

$$$$
WPC1590_minimised.pdb
     RDKit          3D

 21 22  0  0  1  0  0  0  0  0999 V2000
    9.4790    1.0240   20.7400 O   0  0  0  0  0  0  0  0  0  0  0  0
    8.4820   -0.6150   21.5670 C   0  0  0  0  0  0  0  0  0  0  0  0
    7.6440   -0.5360   20.9930 N   0  0  0  0  0  0  0  0  0  0  0  0
    6.7590   -0.0130   19.9110 C   0  0  0  0  0  0  0  0  0  0  0  0
    5.5590    0.6080   20.1280 C   0  0  0  0  0  0  0  0  0  0  0  0
    4.9030    1.2470   19.0700 C   0  0  0  0  0  0  0  0  0  0  0  0
    5.5090    1.2450   17.8230 C   0  0  0  0  0  0  0  0  0  0  0  0
    6.6790    0.6260   17.5870 N   0  0  0  0  0  0  0  0  0  0  0  0
    7.3150    0.0500   18.6320 C   0  0  0  0  0  0  0  0  0  0  0  0
    9.4620   -0.8180   22.3200 N   0  0  0  0  0  0  0  0  0  0  0  0
   10.7530   -0.5500   22.8960 C   0  0  1  0  0  0  0  0  0  0  0  0
   11.8040   -0.9300   22.0520 C   0  0  0  0  0  0  0  0  0  0  0  0
   13.1310   -0.3970   22.3870 C   0  0  0  0  0  0  0  0  0  0  0  0
   13.1490    0.5270   23.3590 C   0  0  0  0  0  0  0  0  0  0  0  0
   11.9720    1.2700   23.8000 C   0  0  1  0  0  0  0  0  0  0  0  0
   10.8810    2.5280   23.0370 S   0  0  0  0  0  0  0  0  0  0  0  0
   12.0860    3.7900   24.0690 S   0  0  0  0  0  0  0  0  0  0  0  0
   13.1930    3.7520   23.1460 O   0  0  0  0  0  0  0  0  0  0  0  0
   11.8560    4.8670   24.8120 O   0  0  0  0  0  0  0  0  0  0  0  0
   10.5670    3.6640   23.3840 O   0  0  0  0  0  0  0  0  0  0  0  0
   10.7470    0.1650   23.8870 C   0  0  0  0  0  0  0  0  0  0  0  0
  1  2  2  0
  2 10  1  0
  2  3  1  0
  3  4  1  0
  4  5  2  0
  4  9  1  0
  5  6  1  0
  6  7  2  0
  7  8  1  0
  8  9  2  0
 11 10  1  6
 11 12  1  0
 11 21  1  0
 12 13  2  0
 13 14  1  0
 14 15  1  0
 15 16  1  6
 15 21  1  0
 16 17  1  0
 17 18  2  0
 17 19  2  0
 17 20  1  0
M  END
>  <original SMILES>  (866) 
O=C(Nc1cccnc1)NC1C=CCC(SS(=O)(=O)O)C1

>  <AutoDock Predicted Affinity>  (866) 
-6.49452

>  <ref_pdb>  (866) 
x0434_0

>  <ref_mols>  (866) 
x0434_0

>  <creator>  (866) 
Will Poole

>  <energy minimised>  (866) 
True

$$$$
WPC1443_minimised.pdb
     RDKit          3D

 23 24  0  0  1  0  0  0  0  0999 V2000
    9.3750    0.6040   20.7520 O   0  0  0  0  0  0  0  0  0  0  0  0
    8.8570   -0.3400   21.2980 C   0  0  0  0  0  0  0  0  0  0  0  0
    7.5340   -0.5750   21.0360 N   0  0  0  0  0  0  0  0  0  0  0  0
    6.7610    0.0180   19.9710 C   0  0  0  0  0  0  0  0  0  0  0  0
    5.5860    0.7370   20.2570 C   0  0  0  0  0  0  0  0  0  0  0  0
    4.9300    1.3550   19.1870 C   0  0  0  0  0  0  0  0  0  0  0  0
    5.4520    1.2360   17.8880 C   0  0  0  0  0  0  0  0  0  0  0  0
    6.5620    0.5160   17.5980 N   0  0  0  0  0  0  0  0  0  0  0  0
    7.2260   -0.0350   18.6330 C   0  0  0  0  0  0  0  0  0  0  0  0
    9.4450   -1.1060   22.2970 N   0  0  0  0  0  0  0  0  0  0  0  0
   10.7420   -1.0110   22.8050 C   0  0  1  0  0  0  0  0  0  0  0  0
   11.8010   -1.2790   21.9110 C   0  0  0  0  0  0  0  0  0  0  0  0
   13.0960   -0.9130   22.2160 C   0  0  0  0  0  0  0  0  0  0  0  0
   13.2750    0.0960   23.1530 C   0  0  0  0  0  0  0  0  0  0  0  0
   12.1610    0.7020   23.7620 C   0  0  1  0  0  0  0  0  0  0  0  0
   11.8580    2.2590   22.7980 S   0  0  0  0  0  0  0  0  0  0  0  0
   12.0320    3.8460   23.9470 C   0  0  0  0  0  0  0  0  0  0  0  0
   10.3950    4.4140   24.0780 C   0  0  0  0  0  0  0  0  0  0  0  0
    9.8510    5.9940   23.1020 P   0  0  0  0  0  0  0  0  0  0  0  0
   10.2280    7.1070   24.0130 O   0  0  0  0  0  0  0  0  0  0  0  0
   11.0710    5.5710   22.0770 O   0  0  0  0  0  0  0  0  0  0  0  0
   10.9920    6.5010   24.0270 O   0  0  0  0  0  0  0  0  0  0  0  0
   10.9400   -0.0080   23.7630 C   0  0  0  0  0  0  0  0  0  0  0  0
  1  2  2  0
  2 10  1  0
  2  3  1  0
  3  4  1  0
  4  5  2  0
  4  9  1  0
  5  6  1  0
  6  7  2  0
  7  8  1  0
  8  9  2  0
 11 10  1  6
 11 12  1  0
 11 23  1  0
 12 13  1  0
 13 14  2  0
 14 15  1  0
 15 16  1  6
 15 23  1  0
 16 17  1  0
 17 18  1  0
 18 19  1  0
 19 20  2  0
 19 21  1  0
 19 22  1  0
M  END
>  <original SMILES>  (867) 
O=C(Nc1cccnc1)NC1CC=CC(SCCP(=O)(O)O)C1

>  <AutoDock Predicted Affinity>  (867) 
-5.39488

>  <ref_pdb>  (867) 
x0434_0

>  <ref_mols>  (867) 
x0434_0

>  <creator>  (867) 
Will Poole

>  <energy minimised>  (867) 
True

$$$$
WPC1278_minimised.pdb
     RDKit          3D

 22 23  0  0  1  0  0  0  0  0999 V2000
    9.4820    0.6420   20.6700 O   0  0  0  0  0  0  0  0  0  0  0  0
    8.8530   -0.2410   21.3630 C   0  0  0  0  0  0  0  0  0  0  0  0
    7.5440   -0.4900   21.0620 N   0  0  0  0  0  0  0  0  0  0  0  0
    6.7920    0.0720   20.0140 C   0  0  0  0  0  0  0  0  0  0  0  0
    5.6450    0.7870   20.3170 C   0  0  0  0  0  0  0  0  0  0  0  0
    4.9900    1.4210   19.2500 C   0  0  0  0  0  0  0  0  0  0  0  0
    5.4800    1.2690   17.9450 C   0  0  0  0  0  0  0  0  0  0  0  0
    6.5660    0.5290   17.6450 N   0  0  0  0  0  0  0  0  0  0  0  0
    7.2690   -0.0050   18.6700 C   0  0  0  0  0  0  0  0  0  0  0  0
    9.4160   -0.8630   22.4270 N   0  0  0  0  0  0  0  0  0  0  0  0
   10.7690   -0.5580   22.7880 C   0  0  1  0  0  0  0  0  0  0  0  0
   11.8040   -1.2240   22.0750 C   0  0  0  0  0  0  0  0  0  0  0  0
   13.1110   -0.8160   22.3140 C   0  0  0  0  0  0  0  0  0  0  0  0
   13.3260    0.5870   22.9380 C   0  0  0  0  0  0  0  0  0  0  0  0
   12.2330    1.4730   23.3390 C   0  0  1  0  0  0  0  0  0  0  0  0
   11.9930    2.8850   22.1340 S   0  0  0  0  0  0  0  0  0  0  0  0
   12.0180    4.3840   23.3320 C   0  0  0  0  0  0  0  0  0  0  0  0
   10.3070    5.3880   22.9360 P   0  0  0  0  0  0  0  0  0  0  0  0
    9.9860    6.0020   24.9390 O   0  0  0  0  0  0  0  0  0  0  0  0
    9.1770    4.1940   22.6980 O   0  0  0  0  0  0  0  0  0  0  0  0
   10.4040    5.0960   24.4270 O   0  0  0  0  0  0  0  0  0  0  0  0
   11.0270    0.7780   23.5020 C   0  0  0  0  0  0  0  0  0  0  0  0
  1  2  2  0
  2 10  1  0
  2  3  1  0
  3  4  1  0
  4  5  2  0
  4  9  1  0
  5  6  1  0
  6  7  2  0
  7  8  1  0
  8  9  2  0
 11 10  1  6
 11 12  1  0
 11 22  1  0
 12 13  1  0
 13 14  1  0
 14 15  1  0
 15 16  1  6
 15 22  1  0
 16 17  1  0
 17 18  1  0
 18 19  2  0
 18 20  1  0
 18 21  1  0
M  END
>  <original SMILES>  (868) 
O=C(Nc1cccnc1)NC1CCCC(SCP(=O)(O)O)C1

>  <AutoDock Predicted Affinity>  (868) 
-4.0264

>  <ref_pdb>  (868) 
x0434_0

>  <ref_mols>  (868) 
x0434_0

>  <creator>  (868) 
Will Poole

>  <energy minimised>  (868) 
True

$$$$
WPC1630_minimised.pdb
     RDKit          3D

 19 20  0  0  1  0  0  0  0  0999 V2000
    8.5860   -0.2230   20.0240 O   0  0  0  0  0  0  0  0  0  0  0  0
    7.9270   -1.0310   20.6140 C   0  0  0  0  0  0  0  0  0  0  0  0
    6.5740   -0.8230   20.9570 N   0  0  0  0  0  0  0  0  0  0  0  0
    5.8470    0.0000   20.1200 C   0  0  0  0  0  0  0  0  0  0  0  0
    5.6220   -0.2240   18.8610 C   0  0  0  0  0  0  0  0  0  0  0  0
    4.8740    0.5770   18.1210 C   0  0  0  0  0  0  0  0  0  0  0  0
    4.3480    1.7040   18.7600 C   0  0  0  0  0  0  0  0  0  0  0  0
    4.5500    1.8730   19.9810 N   0  0  0  0  0  0  0  0  0  0  0  0
    5.3050    1.1260   20.7040 C   0  0  0  0  0  0  0  0  0  0  0  0
    8.6080   -1.9040   21.4680 N   0  0  0  0  0  0  0  0  0  0  0  0
    9.8760   -1.5710   22.0430 C   0  0  1  0  0  0  0  0  0  0  0  0
   10.8660   -1.4350   21.2730 C   0  0  0  0  0  0  0  0  0  0  0  0
   12.2430   -0.8060   21.6650 C   0  0  0  0  0  0  0  0  0  0  0  0
   12.0810    0.1230   22.8890 C   0  0  0  0  0  0  0  0  0  0  0  0
   10.6400    0.5470   23.2210 C   0  0  2  0  0  0  0  0  0  0  0  0
   10.2300    1.8080   24.9960 I   0  0  0  0  0  0  0  0  0  0  0  0
   11.8430    2.8130   24.0650 O   0  0  0  0  0  0  0  0  0  0  0  0
   12.4730    2.2270   24.6880 O   0  0  0  0  0  0  0  0  0  0  0  0
    9.7560   -0.7290   23.3170 C   0  0  0  0  0  0  0  0  0  0  0  0
  1  2  2  0
  2 10  1  0
  2  3  1  0
  3  4  1  0
  4  5  2  0
  4  9  1  0
  5  6  1  0
  6  7  2  0
  7  8  1  0
  8  9  2  0
 11 10  1  6
 11 12  1  0
 11 19  1  0
 12 13  1  0
 13 14  1  0
 14 15  1  0
 15 16  1  1
 15 19  1  0
 16 17  1  0
 16 18  1  0
M  END
>  <original SMILES>  (869) 
O=C(Nc1cccnc1)NC1CCCC([IH2](O)O)C1

>  <AutoDock Predicted Affinity>  (869) 
-5.11483

>  <ref_pdb>  (869) 
x0434_0

>  <ref_mols>  (869) 
x0434_0

>  <creator>  (869) 
Will Poole

>  <energy minimised>  (869) 
True

$$$$
WPC2540_minimised.pdb
     RDKit          3D

 24 25  0  0  0  0  0  0  0  0999 V2000
    8.5880    0.0370   19.6560 O   0  0  0  0  0  0  0  0  0  0  0  0
    7.8810   -0.1710   20.6210 C   0  0  0  0  0  0  0  0  0  0  0  0
    6.5160   -0.1710   20.5540 N   0  0  0  0  0  0  0  0  0  0  0  0
    5.7940    0.4130   19.4890 C   0  0  0  0  0  0  0  0  0  0  0  0
    4.8590    1.4150   19.7760 C   0  0  0  0  0  0  0  0  0  0  0  0
    4.2870    2.1020   18.6980 C   0  0  0  0  0  0  0  0  0  0  0  0
    4.6820    1.7870   17.3900 C   0  0  0  0  0  0  0  0  0  0  0  0
    5.5520    0.7920   17.1030 N   0  0  0  0  0  0  0  0  0  0  0  0
    6.1000    0.1300   18.1410 C   0  0  0  0  0  0  0  0  0  0  0  0
    8.3550   -0.3310   21.8890 N   0  0  0  0  0  0  0  0  0  0  0  0
    9.6100    0.1520   22.3000 C   0  0  0  0  0  0  0  0  0  0  0  0
   10.8110   -0.4080   21.8380 C   0  0  0  0  0  0  0  0  0  0  0  0
   12.0380    0.1540   22.2320 C   0  0  0  0  0  0  0  0  0  0  0  0
   12.0570    1.2720   23.0840 C   0  0  0  0  0  0  0  0  0  0  0  0
   10.8480    1.8340   23.5380 C   0  0  0  0  0  0  0  0  0  0  0  0
   10.8350    2.9710   24.5410 C   0  0  0  0  0  0  0  0  0  0  0  0
   10.9500    4.4050   23.9630 C   0  0  0  0  0  0  0  0  0  0  0  0
   12.2590    4.5830   23.2100 C   0  0  0  0  0  0  0  0  0  0  0  0
   13.2750    4.7900   23.8400 O   0  0  0  0  0  0  0  0  0  0  0  0
   12.1760    5.0520   21.9560 O   0  0  0  0  0  0  0  0  0  0  0  0
    9.6990    4.9180   23.2620 C   0  0  0  0  0  0  0  0  0  0  0  0
    8.6270    4.3540   23.3170 O   0  0  0  0  0  0  0  0  0  0  0  0
    9.7450    6.2500   23.0910 O   0  0  0  0  0  0  0  0  0  0  0  0
    9.6310    1.2650   23.1440 C   0  0  0  0  0  0  0  0  0  0  0  0
  1  2  2  0
  2 10  1  0
  2  3  1  0
  3  4  1  0
  4  5  2  0
  4  9  1  0
  5  6  1  0
  6  7  2  0
  7  8  1  0
  8  9  2  0
 10 11  1  0
 11 12  2  0
 11 24  1  0
 12 13  1  0
 13 14  2  0
 14 15  1  0
 15 16  1  0
 15 24  2  0
 16 17  1  0
 17 18  1  0
 17 21  1  0
 18 19  2  0
 18 20  1  0
 21 22  2  0
 21 23  1  0
M  END
>  <original SMILES>  (870) 
O=C(Nc1cccnc1)Nc1cccc(CC(C(=O)O)C(=O)O)c1

>  <AutoDock Predicted Affinity>  (870) 
-5.779445

>  <ref_pdb>  (870) 
x0434_0

>  <ref_mols>  (870) 
x0434_0

>  <creator>  (870) 
Will Poole

>  <energy minimised>  (870) 
True

$$$$
WPC2657_minimised.pdb
     RDKit          3D

 24 26  0  0  1  0  0  0  0  0999 V2000
    8.5890    0.1630   19.7200 O   0  0  0  0  0  0  0  0  0  0  0  0
    7.9030   -0.1290   20.6790 C   0  0  0  0  0  0  0  0  0  0  0  0
    6.5370   -0.0950   20.6370 N   0  0  0  0  0  0  0  0  0  0  0  0
    5.8130    0.4850   19.5690 C   0  0  0  0  0  0  0  0  0  0  0  0
    4.8800    1.4930   19.8410 C   0  0  0  0  0  0  0  0  0  0  0  0
    4.3260    2.1760   18.7500 C   0  0  0  0  0  0  0  0  0  0  0  0
    4.7330    1.8510   17.4470 C   0  0  0  0  0  0  0  0  0  0  0  0
    5.5930    0.8440   17.1760 N   0  0  0  0  0  0  0  0  0  0  0  0
    6.1250    0.1860   18.2250 C   0  0  0  0  0  0  0  0  0  0  0  0
    8.4180   -0.4490   21.9020 N   0  0  0  0  0  0  0  0  0  0  0  0
    9.7700   -0.2370   22.2240 C   0  0  0  0  0  0  0  0  0  0  0  0
   10.7720   -1.0470   21.6730 C   0  0  0  0  0  0  0  0  0  0  0  0
   12.1230   -0.7290   21.8790 C   0  0  0  0  0  0  0  0  0  0  0  0
   12.4650    0.4020   22.6390 C   0  0  0  0  0  0  0  0  0  0  0  0
   11.4590    1.2130   23.1940 C   0  0  0  0  0  0  0  0  0  0  0  0
   11.8200    2.3710   24.1030 C   0  0  0  0  0  0  0  0  0  0  0  0
   11.7890    3.8090   23.5090 C   0  0  1  0  0  0  0  0  0  0  0  0
   13.0560    4.1620   22.7100 C   0  0  0  0  0  0  0  0  0  0  0  0
   14.1300    4.2770   23.2710 O   0  0  0  0  0  0  0  0  0  0  0  0
   12.8510    4.8200   21.5550 O   0  0  0  0  0  0  0  0  0  0  0  0
   10.4480    4.1190   22.8340 C   0  0  0  0  0  0  0  0  0  0  0  0
    9.3040    4.6110   23.6760 C   0  0  0  0  0  0  0  0  0  0  0  0
    9.9520    5.5410   22.6910 C   0  0  0  0  0  0  0  0  0  0  0  0
   10.1110    0.8760   23.0000 C   0  0  0  0  0  0  0  0  0  0  0  0
  1  2  2  0
  2  3  1  0
  2 10  1  0
  3  4  1  0
  4  5  2  0
  4  9  1  0
  5  6  1  0
  6  7  2  0
  7  8  1  0
  8  9  2  0
 10 11  1  0
 11 24  1  0
 11 12  2  0
 12 13  1  0
 13 14  2  0
 14 15  1  0
 15 16  1  0
 15 24  2  0
 17 16  1  6
 17 18  1  0
 17 21  1  0
 18 19  2  0
 18 20  1  0
 21 22  1  0
 21 23  1  0
 22 23  1  0
M  END
>  <original SMILES>  (871) 
O=C(Nc1cccnc1)Nc1cccc(CC(C(=O)O)C2CC2)c1

>  <AutoDock Predicted Affinity>  (871) 
-5.99249

>  <ref_pdb>  (871) 
x0434_0

>  <ref_mols>  (871) 
x0434_0

>  <creator>  (871) 
Will Poole

>  <energy minimised>  (871) 
True

$$$$
WPC2326_minimised.pdb
     RDKit          3D

 23 24  0  0  1  0  0  0  0  0999 V2000
    8.6200    0.1880   19.7600 O   0  0  0  0  0  0  0  0  0  0  0  0
    7.9250   -0.1780   20.6850 C   0  0  0  0  0  0  0  0  0  0  0  0
    6.5630   -0.2460   20.5940 N   0  0  0  0  0  0  0  0  0  0  0  0
    5.8380    0.3520   19.5370 C   0  0  0  0  0  0  0  0  0  0  0  0
    4.8990    1.3500   19.8300 C   0  0  0  0  0  0  0  0  0  0  0  0
    4.3360    2.0500   18.7550 C   0  0  0  0  0  0  0  0  0  0  0  0
    4.7370    1.7500   17.4450 C   0  0  0  0  0  0  0  0  0  0  0  0
    5.6120    0.7610   17.1540 N   0  0  0  0  0  0  0  0  0  0  0  0
    6.1560    0.0890   18.1880 C   0  0  0  0  0  0  0  0  0  0  0  0
    8.4050   -0.4580   21.9320 N   0  0  0  0  0  0  0  0  0  0  0  0
    9.6440    0.0290   22.3890 C   0  0  0  0  0  0  0  0  0  0  0  0
   10.8600   -0.4450   21.8740 C   0  0  0  0  0  0  0  0  0  0  0  0
   12.0670    0.1620   22.2620 C   0  0  0  0  0  0  0  0  0  0  0  0
   12.0520    1.2480   23.1540 C   0  0  0  0  0  0  0  0  0  0  0  0
   10.8310    1.7170   23.6720 C   0  0  0  0  0  0  0  0  0  0  0  0
   10.7860    2.8540   24.6720 C   0  0  0  0  0  0  0  0  0  0  0  0
   10.6540    4.2740   24.0730 C   0  0  2  0  0  0  0  0  0  0  0  0
    9.4230    4.4050   23.1510 C   0  0  0  0  0  0  0  0  0  0  0  0
    9.0970    6.1510   22.6750 S   0  0  0  0  0  0  0  0  0  0  0  0
   11.9960    4.7600   23.5000 C   0  0  0  0  0  0  0  0  0  0  0  0
   12.9380    5.0020   24.2290 O   0  0  0  0  0  0  0  0  0  0  0  0
   12.1180    4.9010   22.1680 O   0  0  0  0  0  0  0  0  0  0  0  0
    9.6340    1.0920   23.2960 C   0  0  0  0  0  0  0  0  0  0  0  0
  1  2  2  0
  2 10  1  0
  2  3  1  0
  3  4  1  0
  4  5  2  0
  4  9  1  0
  5  6  1  0
  6  7  2  0
  7  8  1  0
  8  9  2  0
 10 11  1  0
 11 12  2  0
 11 23  1  0
 12 13  1  0
 13 14  2  0
 14 15  1  0
 15 16  1  0
 15 23  2  0
 17 16  1  6
 17 18  1  0
 17 20  1  0
 18 19  1  0
 20 21  2  0
 20 22  1  0
M  END
>  <original SMILES>  (872) 
O=C(Nc1cccnc1)Nc1cccc(CC(CS)C(=O)O)c1

>  <AutoDock Predicted Affinity>  (872) 
-5.555933

>  <ref_pdb>  (872) 
x0434_0

>  <ref_mols>  (872) 
x0434_0

>  <creator>  (872) 
Will Poole

>  <energy minimised>  (872) 
True

$$$$
WPC1521_minimised.pdb
     RDKit          3D

 22 23  0  0  1  0  0  0  0  0999 V2000
    8.5580   -0.0750   19.6050 O   0  0  0  0  0  0  0  0  0  0  0  0
    7.9040   -0.1160   20.6280 C   0  0  0  0  0  0  0  0  0  0  0  0
    6.5440    0.0300   20.6410 N   0  0  0  0  0  0  0  0  0  0  0  0
    5.7900    0.5500   19.5620 C   0  0  0  0  0  0  0  0  0  0  0  0
    4.8480    1.5530   19.8230 C   0  0  0  0  0  0  0  0  0  0  0  0
    4.2380    2.1750   18.7270 C   0  0  0  0  0  0  0  0  0  0  0  0
    4.6040    1.8020   17.4260 C   0  0  0  0  0  0  0  0  0  0  0  0
    5.4680    0.7960   17.1650 N   0  0  0  0  0  0  0  0  0  0  0  0
    6.0500    0.1930   18.2200 C   0  0  0  0  0  0  0  0  0  0  0  0
    8.4590   -0.2440   21.8690 N   0  0  0  0  0  0  0  0  0  0  0  0
    9.8400   -0.1170   22.1110 C   0  0  0  0  0  0  0  0  0  0  0  0
   10.7420   -1.0600   21.6000 C   0  0  0  0  0  0  0  0  0  0  0  0
   12.1230   -0.8710   21.7620 C   0  0  0  0  0  0  0  0  0  0  0  0
   12.5950    0.2590   22.4480 C   0  0  0  0  0  0  0  0  0  0  0  0
   11.6920    1.2080   22.9650 C   0  0  0  0  0  0  0  0  0  0  0  0
   12.1980    2.3430   23.8390 C   0  0  0  0  0  0  0  0  0  0  0  0
   11.9960    3.8210   23.3900 C   0  0  2  0  0  0  0  0  0  0  0  0
   10.6530    4.0620   22.9270 O   0  0  0  0  0  0  0  0  0  0  0  0
   13.0850    4.3950   22.4500 C   0  0  0  0  0  0  0  0  0  0  0  0
   12.8380    5.2230   21.5990 O   0  0  0  0  0  0  0  0  0  0  0  0
   14.3240    4.4010   22.9830 O   0  0  0  0  0  0  0  0  0  0  0  0
   10.3120    1.0030   22.8040 C   0  0  0  0  0  0  0  0  0  0  0  0
  1  2  2  0
  2 10  1  0
  2  3  1  0
  3  4  1  0
  4  5  2  0
  4  9  1  0
  5  6  1  0
  6  7  2  0
  7  8  1  0
  8  9  2  0
 10 11  1  0
 11 12  2  0
 11 22  1  0
 12 13  1  0
 13 14  2  0
 14 15  1  0
 15 16  1  0
 15 22  2  0
 16 17  1  0
 17 19  1  0
 17 18  1  6
 19 20  2  0
 19 21  1  0
M  END
>  <original SMILES>  (873) 
O=C(Nc1cccnc1)Nc1cccc(CC(O)C(=O)O)c1

>  <AutoDock Predicted Affinity>  (873) 
-5.86902

>  <ref_pdb>  (873) 
x0434_0

>  <ref_mols>  (873) 
x0434_0

>  <creator>  (873) 
Will Poole

>  <energy minimised>  (873) 
True

$$$$
WPC2284_minimised.pdb
     RDKit          3D

 21 22  0  0  1  0  0  0  0  0999 V2000
    8.6460    0.0730   19.7650 O   0  0  0  0  0  0  0  0  0  0  0  0
    7.9540   -0.1910   20.7270 C   0  0  0  0  0  0  0  0  0  0  0  0
    6.5900   -0.2510   20.6560 N   0  0  0  0  0  0  0  0  0  0  0  0
    5.8510    0.3190   19.5930 C   0  0  0  0  0  0  0  0  0  0  0  0
    4.9160    1.3210   19.8790 C   0  0  0  0  0  0  0  0  0  0  0  0
    4.3290    1.9940   18.8000 C   0  0  0  0  0  0  0  0  0  0  0  0
    4.7050    1.6620   17.4910 C   0  0  0  0  0  0  0  0  0  0  0  0
    5.5780    0.6700   17.2050 N   0  0  0  0  0  0  0  0  0  0  0  0
    6.1450    0.0250   18.2440 C   0  0  0  0  0  0  0  0  0  0  0  0
    8.4430   -0.3530   21.9910 N   0  0  0  0  0  0  0  0  0  0  0  0
    9.6610    0.2180   22.4040 C   0  0  0  0  0  0  0  0  0  0  0  0
   10.8970   -0.2480   21.9330 C   0  0  0  0  0  0  0  0  0  0  0  0
   12.0760    0.4380   22.2750 C   0  0  0  0  0  0  0  0  0  0  0  0
   12.0080    1.6010   23.0620 C   0  0  0  0  0  0  0  0  0  0  0  0
   10.7670    2.0720   23.5280 C   0  0  0  0  0  0  0  0  0  0  0  0
   10.6710    3.2950   24.4290 C   0  0  0  0  0  0  0  0  0  0  0  0
    9.9830    4.5630   23.8520 C   0  0  2  0  0  0  0  0  0  0  0  0
    8.9140    4.2800   22.9460 O   0  0  0  0  0  0  0  0  0  0  0  0
   10.9670    5.5780   23.2360 C   0  0  0  0  0  0  0  0  0  0  0  0
   11.8200    4.9970   22.2520 O   0  0  0  0  0  0  0  0  0  0  0  0
    9.6030    1.3550   23.2160 C   0  0  0  0  0  0  0  0  0  0  0  0
  1  2  2  0
  2 10  1  0
  2  3  1  0
  3  4  1  0
  4  5  2  0
  4  9  1  0
  5  6  1  0
  6  7  2  0
  7  8  1  0
  8  9  2  0
 10 11  1  0
 11 12  2  0
 11 21  1  0
 12 13  1  0
 13 14  2  0
 14 15  1  0
 15 16  1  0
 15 21  2  0
 16 17  1  0
 17 19  1  0
 17 18  1  6
 19 20  1  0
M  END
>  <original SMILES>  (874) 
O=C(Nc1cccnc1)Nc1cccc(CC(O)CO)c1

>  <AutoDock Predicted Affinity>  (874) 
-5.71324

>  <ref_pdb>  (874) 
x0434_0

>  <ref_mols>  (874) 
x0434_0

>  <creator>  (874) 
Will Poole

>  <energy minimised>  (874) 
True

$$$$
WPC2081_minimised.pdb
     RDKit          3D

 24 26  0  0  1  0  0  0  0  0999 V2000
    8.5660   -0.0600   19.7090 O   0  0  0  0  0  0  0  0  0  0  0  0
    7.8310   -0.3330   20.6380 C   0  0  0  0  0  0  0  0  0  0  0  0
    6.4690   -0.2560   20.5510 N   0  0  0  0  0  0  0  0  0  0  0  0
    5.7890    0.3870   19.4900 C   0  0  0  0  0  0  0  0  0  0  0  0
    4.8580    1.3900   19.7850 C   0  0  0  0  0  0  0  0  0  0  0  0
    4.3290    2.1230   18.7140 C   0  0  0  0  0  0  0  0  0  0  0  0
    4.7600    1.8500   17.4070 C   0  0  0  0  0  0  0  0  0  0  0  0
    5.6250    0.8540   17.1120 N   0  0  0  0  0  0  0  0  0  0  0  0
    6.1310    0.1480   18.1420 C   0  0  0  0  0  0  0  0  0  0  0  0
    8.2760   -0.6620   21.8870 N   0  0  0  0  0  0  0  0  0  0  0  0
    9.5840   -0.3610   22.3040 C   0  0  0  0  0  0  0  0  0  0  0  0
   10.6870   -1.0360   21.7610 C   0  0  0  0  0  0  0  0  0  0  0  0
   11.9870   -0.5820   22.0310 C   0  0  0  0  0  0  0  0  0  0  0  0
   12.1720    0.5590   22.8280 C   0  0  0  0  0  0  0  0  0  0  0  0
   11.0650    1.2350   23.3720 C   0  0  0  0  0  0  0  0  0  0  0  0
   11.2700    2.4610   24.2430 C   0  0  0  0  0  0  0  0  0  0  0  0
   11.4240    3.8260   23.5240 C   0  0  1  0  0  0  0  0  0  0  0  0
   12.2570    3.7270   22.3690 O   0  0  0  0  0  0  0  0  0  0  0  0
   10.1260    4.5160   23.1950 C   0  0  0  0  0  0  0  0  0  0  0  0
    9.1070    3.9840   22.4490 C   0  0  0  0  0  0  0  0  0  0  0  0
    8.2440    5.0780   22.1960 C   0  0  0  0  0  0  0  0  0  0  0  0
    8.8450    6.1500   22.8000 C   0  0  0  0  0  0  0  0  0  0  0  0
    9.9910    5.8470   23.4790 O   0  0  0  0  0  0  0  0  0  0  0  0
    9.7730    0.7460   23.1380 C   0  0  0  0  0  0  0  0  0  0  0  0
  1  2  2  0
  2  3  1  0
  2 10  1  0
  3  4  1  0
  4  5  2  0
  4  9  1  0
  5  6  1  0
  6  7  2  0
  7  8  1  0
  8  9  2  0
 10 11  1  0
 11 24  1  0
 11 12  2  0
 12 13  1  0
 13 14  2  0
 14 15  1  0
 15 16  1  0
 15 24  2  0
 16 17  1  0
 17 18  1  6
 17 19  1  0
 19 20  2  0
 19 23  1  0
 20 21  1  0
 21 22  2  0
 22 23  1  0
M  END
>  <original SMILES>  (875) 
O=C(Nc1cccnc1)Nc1cccc(CC(O)c2ccco2)c1

>  <AutoDock Predicted Affinity>  (875) 
-6.059694

>  <ref_pdb>  (875) 
x0434_0

>  <ref_mols>  (875) 
x0434_0

>  <creator>  (875) 
Will Poole

>  <energy minimised>  (875) 
True

$$$$
WPC1654_minimised.pdb
     RDKit          3D

 22 23  0  0  1  0  0  0  0  0999 V2000
    8.5870    0.2040   19.7340 O   0  0  0  0  0  0  0  0  0  0  0  0
    7.8860   -0.0350   20.6950 C   0  0  0  0  0  0  0  0  0  0  0  0
    6.5230   -0.1110   20.6130 N   0  0  0  0  0  0  0  0  0  0  0  0
    5.7950    0.4360   19.5310 C   0  0  0  0  0  0  0  0  0  0  0  0
    4.8440    1.4310   19.7920 C   0  0  0  0  0  0  0  0  0  0  0  0
    4.2820    2.0970   18.6960 C   0  0  0  0  0  0  0  0  0  0  0  0
    4.6980    1.7700   17.3980 C   0  0  0  0  0  0  0  0  0  0  0  0
    5.5810    0.7800   17.1370 N   0  0  0  0  0  0  0  0  0  0  0  0
    6.1220    0.1370   18.1910 C   0  0  0  0  0  0  0  0  0  0  0  0
    8.3590   -0.1410   21.9690 N   0  0  0  0  0  0  0  0  0  0  0  0
    9.6100    0.3650   22.3690 C   0  0  0  0  0  0  0  0  0  0  0  0
   10.8100   -0.2060   21.9150 C   0  0  0  0  0  0  0  0  0  0  0  0
   12.0380    0.3660   22.2870 C   0  0  0  0  0  0  0  0  0  0  0  0
   12.0620    1.5080   23.1050 C   0  0  0  0  0  0  0  0  0  0  0  0
   10.8580    2.0840   23.5530 C   0  0  0  0  0  0  0  0  0  0  0  0
   10.8640    3.2370   24.5390 C   0  0  0  0  0  0  0  0  0  0  0  0
   11.0120    4.6590   23.9570 C   0  0  2  0  0  0  0  0  0  0  0  0
    9.4990    5.3250   23.1010 S   0  0  0  0  0  0  0  0  0  0  0  0
   12.3430    4.8330   23.2120 C   0  0  0  0  0  0  0  0  0  0  0  0
   13.4020    4.8470   23.8060 O   0  0  0  0  0  0  0  0  0  0  0  0
   12.2960    4.9730   21.8780 O   0  0  0  0  0  0  0  0  0  0  0  0
    9.6360    1.5050   23.1830 C   0  0  0  0  0  0  0  0  0  0  0  0
  1  2  2  0
  2 10  1  0
  2  3  1  0
  3  4  1  0
  4  5  2  0
  4  9  1  0
  5  6  1  0
  6  7  2  0
  7  8  1  0
  8  9  2  0
 10 11  1  0
 11 12  2  0
 11 22  1  0
 12 13  1  0
 13 14  2  0
 14 15  1  0
 15 16  1  0
 15 22  2  0
 17 16  1  6
 17 19  1  0
 17 18  1  0
 19 20  2  0
 19 21  1  0
M  END
>  <original SMILES>  (876) 
O=C(Nc1cccnc1)Nc1cccc(CC(S)C(=O)O)c1

>  <AutoDock Predicted Affinity>  (876) 
-5.441039

>  <ref_pdb>  (876) 
x0434_0

>  <ref_mols>  (876) 
x0434_0

>  <creator>  (876) 
Will Poole

>  <energy minimised>  (876) 
True

$$$$
WPC2504_minimised.pdb
     RDKit          3D

 23 25  0  0  0  0  0  0  0  0999 V2000
    8.4570   -0.2200   19.5650 O   0  0  0  0  0  0  0  0  0  0  0  0
    7.7000   -0.4660   20.4820 C   0  0  0  0  0  0  0  0  0  0  0  0
    6.3420   -0.3500   20.3860 N   0  0  0  0  0  0  0  0  0  0  0  0
    5.6860    0.3450   19.3460 C   0  0  0  0  0  0  0  0  0  0  0  0
    4.7610    1.3450   19.6730 C   0  0  0  0  0  0  0  0  0  0  0  0
    4.2370    2.1130   18.6250 C   0  0  0  0  0  0  0  0  0  0  0  0
    4.6680    1.8790   17.3110 C   0  0  0  0  0  0  0  0  0  0  0  0
    5.5350    0.8930   16.9880 N   0  0  0  0  0  0  0  0  0  0  0  0
    6.0350    0.1520   17.9950 C   0  0  0  0  0  0  0  0  0  0  0  0
    8.1050   -0.7950   21.7410 N   0  0  0  0  0  0  0  0  0  0  0  0
    9.3630   -0.4230   22.2420 C   0  0  0  0  0  0  0  0  0  0  0  0
   10.5420   -1.0500   21.8180 C   0  0  0  0  0  0  0  0  0  0  0  0
   11.7860   -0.5650   22.2540 C   0  0  0  0  0  0  0  0  0  0  0  0
   11.8400    0.5420   23.1180 C   0  0  0  0  0  0  0  0  0  0  0  0
   10.6530    1.1720   23.5380 C   0  0  0  0  0  0  0  0  0  0  0  0
   10.6730    2.3560   24.4900 C   0  0  0  0  0  0  0  0  0  0  0  0
   11.3280    3.6020   23.9700 C   0  0  0  0  0  0  0  0  0  0  0  0
   10.8620    4.8700   24.2290 N   0  0  0  0  0  0  0  0  0  0  0  0
   11.7050    5.6660   23.6300 N   0  0  0  0  0  0  0  0  0  0  0  0
   12.7090    4.9600   22.9770 C   0  0  0  0  0  0  0  0  0  0  0  0
   13.9590    5.5550   22.0410 S   0  0  0  0  0  0  0  0  0  0  0  0
   12.4340    3.6480   23.2710 N   0  0  0  0  0  0  0  0  0  0  0  0
    9.4180    0.6790   23.0990 C   0  0  0  0  0  0  0  0  0  0  0  0
  1  2  2  0
  2 10  1  0
  2  3  1  0
  3  4  1  0
  4  5  2  0
  4  9  1  0
  5  6  1  0
  6  7  2  0
  7  8  1  0
  8  9  2  0
 10 11  1  0
 11 12  2  0
 11 23  1  0
 12 13  1  0
 13 14  2  0
 14 15  1  0
 15 16  1  0
 15 23  2  0
 16 17  1  0
 17 18  1  0
 17 22  2  0
 18 19  2  0
 19 20  1  0
 20 21  2  0
 20 22  1  0
M  END
>  <original SMILES>  (877) 
O=C(Nc1cccnc1)Nc1cccc(CC2=NC(=S)N=N2)c1

>  <AutoDock Predicted Affinity>  (877) 
-6.348715

>  <ref_pdb>  (877) 
x0434_0

>  <ref_mols>  (877) 
x0434_0

>  <creator>  (877) 
Will Poole

>  <energy minimised>  (877) 
True

$$$$
WPC1501_minimised.pdb
     RDKit          3D

 24 26  0  0  1  0  0  0  0  0999 V2000
    9.0610    0.8540   20.5890 O   0  0  0  0  0  0  0  0  0  0  0  0
    8.7820   -0.3270   20.6840 C   0  0  0  0  0  0  0  0  0  0  0  0
    7.6200   -0.8450   20.1870 N   0  0  0  0  0  0  0  0  0  0  0  0
    6.6680   -0.1220   19.4280 C   0  0  0  0  0  0  0  0  0  0  0  0
    5.9960    0.9760   19.9860 C   0  0  0  0  0  0  0  0  0  0  0  0
    5.1040    1.6860   19.1660 C   0  0  0  0  0  0  0  0  0  0  0  0
    4.9440    1.3050   17.8250 C   0  0  0  0  0  0  0  0  0  0  0  0
    5.5750    0.2350   17.2920 N   0  0  0  0  0  0  0  0  0  0  0  0
    6.4170   -0.4560   18.0850 C   0  0  0  0  0  0  0  0  0  0  0  0
    9.6010   -1.2530   21.2800 N   0  0  0  0  0  0  0  0  0  0  0  0
   10.7560   -0.8700   21.9820 C   0  0  0  0  0  0  0  0  0  0  0  0
   12.0180   -0.8200   21.3720 C   0  0  0  0  0  0  0  0  0  0  0  0
   13.0660   -0.1220   21.9940 C   0  0  0  0  0  0  0  0  0  0  0  0
   12.8290    0.5680   23.1950 C   0  0  0  0  0  0  0  0  0  0  0  0
   11.5680    0.4850   23.8130 C   0  0  0  0  0  0  0  0  0  0  0  0
   11.2460    1.2750   25.0610 C   0  0  0  0  0  0  0  0  0  0  0  0
   10.4170    2.5590   24.8020 C   0  0  0  0  0  0  0  0  0  0  0  0
    9.2060    2.3670   23.8730 C   0  0  0  0  0  0  0  0  0  0  0  0
    8.2310    1.6620   24.0800 O   0  0  0  0  0  0  0  0  0  0  0  0
    9.4240    3.2230   22.6990 C   0  0  0  0  0  0  0  0  0  0  0  0
   10.5590    3.9290   22.8240 C   0  0  0  0  0  0  0  0  0  0  0  0
   11.2280    3.6420   24.0890 C   0  0  0  0  0  0  0  0  0  0  0  0
   12.2280    4.1960   24.5000 O   0  0  0  0  0  0  0  0  0  0  0  0
   10.5610   -0.2890   23.2320 C   0  0  0  0  0  0  0  0  0  0  0  0
  1  2  2  0
  2  3  1  0
  2 10  1  0
  3  4  1  0
  4  5  2  0
  4  9  1  0
  5  6  1  0
  6  7  2  0
  7  8  1  0
  8  9  2  0
 10 11  1  0
 11 24  1  0
 11 12  2  0
 12 13  1  0
 13 14  2  0
 14 15  1  0
 15 16  1  0
 15 24  2  0
 16 17  1  0
 17 18  1  0
 17 22  1  0
 18 19  2  0
 18 20  1  0
 20 21  2  0
 21 22  1  0
 22 23  2  0
M  END
>  <original SMILES>  (878) 
O=C(Nc1cccnc1)Nc1cccc(CC2C(=O)C=CC2=O)c1

>  <AutoDock Predicted Affinity>  (878) 
-6.583795

>  <ref_pdb>  (878) 
x0434_0

>  <ref_mols>  (878) 
x0434_0

>  <creator>  (878) 
Will Poole

>  <energy minimised>  (878) 
True

$$$$
WPC2311_minimised.pdb
     RDKit          3D

 24 26  0  0  1  0  0  0  0  0999 V2000
    8.7880    1.2420   20.5020 O   0  0  0  0  0  0  0  0  0  0  0  0
    8.5550    0.1000   20.8440 C   0  0  0  0  0  0  0  0  0  0  0  0
    7.4310   -0.5710   20.4490 N   0  0  0  0  0  0  0  0  0  0  0  0
    6.4660   -0.0120   19.5760 C   0  0  0  0  0  0  0  0  0  0  0  0
    5.6250    1.0150   20.0270 C   0  0  0  0  0  0  0  0  0  0  0  0
    4.7690    1.6190   19.0950 C   0  0  0  0  0  0  0  0  0  0  0  0
    4.8020    1.2040   17.7550 C   0  0  0  0  0  0  0  0  0  0  0  0
    5.5970    0.2010   17.3200 N   0  0  0  0  0  0  0  0  0  0  0  0
    6.4180   -0.3790   18.2180 C   0  0  0  0  0  0  0  0  0  0  0  0
    9.4060   -0.6090   21.6430 N   0  0  0  0  0  0  0  0  0  0  0  0
   10.5500   -0.0370   22.2310 C   0  0  0  0  0  0  0  0  0  0  0  0
   11.8350   -0.4660   21.8730 C   0  0  0  0  0  0  0  0  0  0  0  0
   12.9580    0.1780   22.4200 C   0  0  0  0  0  0  0  0  0  0  0  0
   12.7900    1.2330   23.3330 C   0  0  0  0  0  0  0  0  0  0  0  0
   11.4980    1.6670   23.6880 C   0  0  0  0  0  0  0  0  0  0  0  0
   11.2860    2.7270   24.7540 C   0  0  0  0  0  0  0  0  0  0  0  0
   11.5460    4.1960   24.3400 C   0  0  2  0  0  0  0  0  0  0  0  0
   10.4230    4.7380   23.5190 C   0  0  0  0  0  0  0  0  0  0  0  0
    9.3070    4.9850   23.9340 O   0  0  0  0  0  0  0  0  0  0  0  0
   10.9440    4.9950   22.1420 C   0  0  0  0  0  0  0  0  0  0  0  0
   12.3610    5.0950   22.3250 O   0  0  0  0  0  0  0  0  0  0  0  0
   12.7570    4.4300   23.4460 C   0  0  0  0  0  0  0  0  0  0  0  0
   13.8960    4.4540   23.8640 O   0  0  0  0  0  0  0  0  0  0  0  0
   10.3840    1.0270   23.1280 C   0  0  0  0  0  0  0  0  0  0  0  0
  1  2  2  0
  2  3  1  0
  2 10  1  0
  3  4  1  0
  4  5  2  0
  4  9  1  0
  5  6  1  0
  6  7  2  0
  7  8  1  0
  8  9  2  0
 10 11  1  0
 11 24  1  0
 11 12  2  0
 12 13  1  0
 13 14  2  0
 14 15  1  0
 15 16  1  0
 15 24  2  0
 17 16  1  6
 17 18  1  0
 17 22  1  0
 18 19  2  0
 18 20  1  0
 20 21  1  0
 21 22  1  0
 22 23  2  0
M  END
>  <original SMILES>  (879) 
O=C(Nc1cccnc1)Nc1cccc(CC2C(=O)COC2=O)c1

>  <AutoDock Predicted Affinity>  (879) 
-6.57282

>  <ref_pdb>  (879) 
x0434_0

>  <ref_mols>  (879) 
x0434_0

>  <creator>  (879) 
Will Poole

>  <energy minimised>  (879) 
True

$$$$
WPC2077_minimised.pdb
     RDKit          3D

 24 26  0  0  1  0  0  0  0  0999 V2000
    8.8450    0.1940   20.1470 O   0  0  0  0  0  0  0  0  0  0  0  0
    8.2130   -0.6800   20.7070 C   0  0  0  0  0  0  0  0  0  0  0  0
    6.8780   -0.8650   20.4880 N   0  0  0  0  0  0  0  0  0  0  0  0
    6.1210   -0.0910   19.5780 C   0  0  0  0  0  0  0  0  0  0  0  0
    5.2620    0.9130   20.0430 C   0  0  0  0  0  0  0  0  0  0  0  0
    4.6280    1.7240   19.0880 C   0  0  0  0  0  0  0  0  0  0  0  0
    4.8790    1.5130   17.7220 C   0  0  0  0  0  0  0  0  0  0  0  0
    5.7000    0.5380   17.2710 N   0  0  0  0  0  0  0  0  0  0  0  0
    6.3180   -0.2300   18.1910 C   0  0  0  0  0  0  0  0  0  0  0  0
    8.7400   -1.5450   21.6280 N   0  0  0  0  0  0  0  0  0  0  0  0
    9.8870   -1.2520   22.3880 C   0  0  0  0  0  0  0  0  0  0  0  0
   11.1220   -0.9240   21.8060 C   0  0  0  0  0  0  0  0  0  0  0  0
   12.1380   -0.3460   22.5850 C   0  0  0  0  0  0  0  0  0  0  0  0
   11.8890   -0.0480   23.9350 C   0  0  0  0  0  0  0  0  0  0  0  0
   10.6540   -0.3920   24.5130 C   0  0  0  0  0  0  0  0  0  0  0  0
   10.2390    0.1370   25.8680 C   0  0  0  0  0  0  0  0  0  0  0  0
    9.5060    1.5000   25.7560 C   0  0  1  0  0  0  0  0  0  0  0  0
   10.3250    2.6140   25.0340 C   0  0  0  0  0  0  0  0  0  0  0  0
   10.0280    2.7160   23.5570 C   0  0  0  0  0  0  0  0  0  0  0  0
    8.9290    2.1680   23.0120 C   0  0  0  0  0  0  0  0  0  0  0  0
    7.9380    1.4160   23.8150 C   0  0  0  0  0  0  0  0  0  0  0  0
    6.9120    0.9690   23.3360 O   0  0  0  0  0  0  0  0  0  0  0  0
    8.2040    1.2940   25.1520 O   0  0  0  0  0  0  0  0  0  0  0  0
    9.6870   -1.0570   23.7530 C   0  0  0  0  0  0  0  0  0  0  0  0
  1  2  2  0
  2 10  1  0
  2  3  1  0
  3  4  1  0
  4  5  2  0
  4  9  1  0
  5  6  1  0
  6  7  2  0
  7  8  1  0
  8  9  2  0
 10 11  1  0
 11 12  2  0
 11 24  1  0
 12 13  1  0
 13 14  2  0
 14 15  1  0
 15 16  1  0
 15 24  2  0
 17 16  1  6
 17 18  1  0
 17 23  1  0
 18 19  1  0
 19 20  2  0
 20 21  1  0
 21 22  2  0
 21 23  1  0
M  END
>  <original SMILES>  (880) 
O=C(Nc1cccnc1)Nc1cccc(CC2CC=CC(=O)O2)c1

>  <AutoDock Predicted Affinity>  (880) 
-6.723995

>  <ref_pdb>  (880) 
x0434_0

>  <ref_mols>  (880) 
x0434_0

>  <creator>  (880) 
Will Poole

>  <energy minimised>  (880) 
True

$$$$
WPC1350_minimised.pdb
     RDKit          3D

 23 25  0  0  1  0  0  0  0  0999 V2000
    8.4990   -0.3780   19.7370 O   0  0  0  0  0  0  0  0  0  0  0  0
    7.7720   -0.5690   20.6930 C   0  0  0  0  0  0  0  0  0  0  0  0
    6.4220   -0.3490   20.6400 N   0  0  0  0  0  0  0  0  0  0  0  0
    5.7660    0.3200   19.5790 C   0  0  0  0  0  0  0  0  0  0  0  0
    4.8750    1.3600   19.8740 C   0  0  0  0  0  0  0  0  0  0  0  0
    4.3490    2.0920   18.8010 C   0  0  0  0  0  0  0  0  0  0  0  0
    4.7380    1.7810   17.4900 C   0  0  0  0  0  0  0  0  0  0  0  0
    5.5670    0.7540   17.1960 N   0  0  0  0  0  0  0  0  0  0  0  0
    6.0730    0.0500   18.2270 C   0  0  0  0  0  0  0  0  0  0  0  0
    8.2200   -0.9540   21.9260 N   0  0  0  0  0  0  0  0  0  0  0  0
    9.5670   -0.8020   22.3040 C   0  0  0  0  0  0  0  0  0  0  0  0
   10.5800   -1.5400   21.6800 C   0  0  0  0  0  0  0  0  0  0  0  0
   11.9250   -1.1790   21.8570 C   0  0  0  0  0  0  0  0  0  0  0  0
   12.2480   -0.0690   22.6540 C   0  0  0  0  0  0  0  0  0  0  0  0
   11.2320    0.6400   23.3200 C   0  0  0  0  0  0  0  0  0  0  0  0
   11.5590    1.8800   24.1280 C   0  0  0  0  0  0  0  0  0  0  0  0
   11.2230    3.1780   23.3570 C   0  0  1  0  0  0  0  0  0  0  0  0
    9.7090    3.4550   23.1830 C   0  0  0  0  0  0  0  0  0  0  0  0
    9.5290    4.9840   23.2340 C   0  0  0  0  0  0  0  0  0  0  0  0
   10.9460    5.5590   23.3490 C   0  0  0  0  0  0  0  0  0  0  0  0
   11.7770    4.4550   24.0010 C   0  0  2  0  0  0  0  0  0  0  0  0
   13.1640    4.6250   23.7270 O   0  0  0  0  0  0  0  0  0  0  0  0
    9.8950    0.2480   23.1630 C   0  0  0  0  0  0  0  0  0  0  0  0
  1  2  2  0
  2  3  1  0
  2 10  1  0
  3  4  1  0
  4  5  2  0
  4  9  1  0
  5  6  1  0
  6  7  2  0
  7  8  1  0
  8  9  2  0
 10 11  1  0
 11 23  1  0
 11 12  2  0
 12 13  1  0
 13 14  2  0
 14 15  1  0
 15 16  1  0
 15 23  2  0
 17 16  1  1
 17 18  1  0
 17 21  1  0
 18 19  1  0
 19 20  1  0
 20 21  1  0
 21 22  1  6
M  END
>  <original SMILES>  (881) 
O=C(Nc1cccnc1)Nc1cccc(CC2CCCC2O)c1

>  <AutoDock Predicted Affinity>  (881) 
-6.17747

>  <ref_pdb>  (881) 
x0434_0

>  <ref_mols>  (881) 
x0434_0

>  <creator>  (881) 
Will Poole

>  <energy minimised>  (881) 
True

$$$$
WPC1354_minimised.pdb
     RDKit          3D

 24 26  0  0  1  0  0  0  0  0999 V2000
    8.6100   -0.3710   19.6490 O   0  0  0  0  0  0  0  0  0  0  0  0
    7.9060   -0.6580   20.5980 C   0  0  0  0  0  0  0  0  0  0  0  0
    6.5500   -0.4930   20.5750 N   0  0  0  0  0  0  0  0  0  0  0  0
    5.8540    0.2050   19.5580 C   0  0  0  0  0  0  0  0  0  0  0  0
    4.9760    1.2400   19.9050 C   0  0  0  0  0  0  0  0  0  0  0  0
    4.4100    1.9920   18.8660 C   0  0  0  0  0  0  0  0  0  0  0  0
    4.7490    1.7030   17.5360 C   0  0  0  0  0  0  0  0  0  0  0  0
    5.5700    0.6860   17.1930 N   0  0  0  0  0  0  0  0  0  0  0  0
    6.1150   -0.0350   18.1920 C   0  0  0  0  0  0  0  0  0  0  0  0
    8.3800   -1.1110   21.7980 N   0  0  0  0  0  0  0  0  0  0  0  0
    9.6950   -0.8480   22.2200 C   0  0  0  0  0  0  0  0  0  0  0  0
   10.8020   -1.3830   21.5550 C   0  0  0  0  0  0  0  0  0  0  0  0
   12.0950   -0.9070   21.8260 C   0  0  0  0  0  0  0  0  0  0  0  0
   12.2710    0.1110   22.7770 C   0  0  0  0  0  0  0  0  0  0  0  0
   11.1620    0.6020   23.4890 C   0  0  0  0  0  0  0  0  0  0  0  0
   11.3350    1.5990   24.6110 C   0  0  0  0  0  0  0  0  0  0  0  0
   11.1280    3.1000   24.2730 C   0  0  1  0  0  0  0  0  0  0  0  0
   12.2000    3.7120   23.3560 C   0  0  0  0  0  0  0  0  0  0  0  0
   12.0810    5.2440   23.4800 C   0  0  0  0  0  0  0  0  0  0  0  0
   10.6280    5.7400   23.2330 C   0  0  0  0  0  0  0  0  0  0  0  0
    9.6390    4.8960   23.8600 O   0  0  0  0  0  0  0  0  0  0  0  0
    9.7530    3.5380   23.7420 C   0  0  0  0  0  0  0  0  0  0  0  0
    8.7690    2.8260   23.6860 O   0  0  0  0  0  0  0  0  0  0  0  0
    9.8830    0.0950   23.2260 C   0  0  0  0  0  0  0  0  0  0  0  0
  1  2  2  0
  2  3  1  0
  2 10  1  0
  3  4  1  0
  4  5  2  0
  4  9  1  0
  5  6  1  0
  6  7  2  0
  7  8  1  0
  8  9  2  0
 10 11  1  0
 11 24  1  0
 11 12  2  0
 12 13  1  0
 13 14  2  0
 14 15  1  0
 15 16  1  0
 15 24  2  0
 17 16  1  6
 17 18  1  0
 17 22  1  0
 18 19  1  0
 19 20  1  0
 20 21  1  0
 21 22  1  0
 22 23  2  0
M  END
>  <original SMILES>  (882) 
O=C(Nc1cccnc1)Nc1cccc(CC2CCCOC2=O)c1

>  <AutoDock Predicted Affinity>  (882) 
-6.85732

>  <ref_pdb>  (882) 
x0434_0

>  <ref_mols>  (882) 
x0434_0

>  <creator>  (882) 
Will Poole

>  <energy minimised>  (882) 
True

$$$$
WPC1573_minimised.pdb
     RDKit          3D

 23 25  0  0  0  0  0  0  0  0999 V2000
    8.5130   -0.0490   19.7100 O   0  0  0  0  0  0  0  0  0  0  0  0
    7.8100   -0.2460   20.6820 C   0  0  0  0  0  0  0  0  0  0  0  0
    6.4500   -0.1130   20.6400 N   0  0  0  0  0  0  0  0  0  0  0  0
    5.7470    0.4760   19.5620 C   0  0  0  0  0  0  0  0  0  0  0  0
    4.8170    1.4890   19.8260 C   0  0  0  0  0  0  0  0  0  0  0  0
    4.2580    2.1610   18.7310 C   0  0  0  0  0  0  0  0  0  0  0  0
    4.6560    1.8190   17.4300 C   0  0  0  0  0  0  0  0  0  0  0  0
    5.5130    0.8080   17.1650 N   0  0  0  0  0  0  0  0  0  0  0  0
    6.0510    0.1620   18.2190 C   0  0  0  0  0  0  0  0  0  0  0  0
    8.2960   -0.5680   21.9190 N   0  0  0  0  0  0  0  0  0  0  0  0
    9.6590   -0.4620   22.2580 C   0  0  0  0  0  0  0  0  0  0  0  0
   10.6290   -1.1620   21.5320 C   0  0  0  0  0  0  0  0  0  0  0  0
   11.9920   -0.8990   21.7320 C   0  0  0  0  0  0  0  0  0  0  0  0
   12.3790    0.0510   22.6890 C   0  0  0  0  0  0  0  0  0  0  0  0
   11.4080    0.6990   23.4750 C   0  0  0  0  0  0  0  0  0  0  0  0
   11.8370    1.6120   24.6050 C   0  0  0  0  0  0  0  0  0  0  0  0
   11.6950    3.1380   24.3610 C   0  0  0  0  0  0  0  0  0  0  0  0
   12.4220    3.6370   23.0960 C   0  0  0  0  0  0  0  0  0  0  0  0
   12.1360    5.1350   22.9000 C   0  0  0  0  0  0  0  0  0  0  0  0
   10.6950    5.4110   22.7060 N   0  0  0  0  0  0  0  0  0  0  0  0
    9.7590    4.3730   23.1870 C   0  0  0  0  0  0  0  0  0  0  0  0
   10.2510    3.6750   24.4650 C   0  0  0  0  0  0  0  0  0  0  0  0
   10.0460    0.4350   23.2550 C   0  0  0  0  0  0  0  0  0  0  0  0
  1  2  2  0
  2  3  1  0
  2 10  1  0
  3  4  1  0
  4  5  2  0
  4  9  1  0
  5  6  1  0
  6  7  2  0
  7  8  1  0
  8  9  2  0
 10 11  1  0
 11 23  1  0
 11 12  2  0
 12 13  1  0
 13 14  2  0
 14 15  1  0
 15 16  1  0
 15 23  2  0
 16 17  1  0
 17 18  1  0
 17 22  1  0
 18 19  1  0
 19 20  1  0
 20 21  1  0
 21 22  1  0
M  END
>  <original SMILES>  (883) 
O=C(Nc1cccnc1)Nc1cccc(CC2CCNCC2)c1

>  <AutoDock Predicted Affinity>  (883) 
-6.66459

>  <ref_pdb>  (883) 
x0434_0

>  <ref_mols>  (883) 
x0434_0

>  <creator>  (883) 
Will Poole

>  <energy minimised>  (883) 
True

$$$$
WPC2147_minimised.pdb
     RDKit          3D

 23 25  0  0  1  0  0  0  0  0999 V2000
    8.4390    0.0900   19.6140 O   0  0  0  0  0  0  0  0  0  0  0  0
    7.7140    0.0010   20.5840 C   0  0  0  0  0  0  0  0  0  0  0  0
    6.3510    0.0500   20.5060 N   0  0  0  0  0  0  0  0  0  0  0  0
    5.6460    0.5950   19.4110 C   0  0  0  0  0  0  0  0  0  0  0  0
    4.6890    1.5870   19.6570 C   0  0  0  0  0  0  0  0  0  0  0  0
    4.1300    2.2370   18.5510 C   0  0  0  0  0  0  0  0  0  0  0  0
    4.5590    1.9000   17.2610 C   0  0  0  0  0  0  0  0  0  0  0  0
    5.4460    0.9090   17.0130 N   0  0  0  0  0  0  0  0  0  0  0  0
    5.9800    0.2790   18.0770 C   0  0  0  0  0  0  0  0  0  0  0  0
    8.1640   -0.0810   21.8680 N   0  0  0  0  0  0  0  0  0  0  0  0
    9.4800    0.2110   22.2680 C   0  0  0  0  0  0  0  0  0  0  0  0
   10.5720   -0.5040   21.7540 C   0  0  0  0  0  0  0  0  0  0  0  0
   11.8750   -0.1820   22.1650 C   0  0  0  0  0  0  0  0  0  0  0  0
   12.0770    0.8480   23.0980 C   0  0  0  0  0  0  0  0  0  0  0  0
   10.9830    1.5770   23.6020 C   0  0  0  0  0  0  0  0  0  0  0  0
   11.1640    2.5840   24.7240 C   0  0  0  0  0  0  0  0  0  0  0  0
   11.5300    4.0410   24.3400 C   0  0  1  0  0  0  0  0  0  0  0  0
   12.8560    4.2300   23.5750 C   0  0  0  0  0  0  0  0  0  0  0  0
   12.4320    4.9190   22.2810 C   0  0  0  0  0  0  0  0  0  0  0  0
   11.1790    5.5190   22.6360 O   0  0  0  0  0  0  0  0  0  0  0  0
   10.4710    4.7560   23.5070 C   0  0  0  0  0  0  0  0  0  0  0  0
    9.4240    5.1380   23.9940 O   0  0  0  0  0  0  0  0  0  0  0  0
    9.6850    1.2520   23.1810 C   0  0  0  0  0  0  0  0  0  0  0  0
  1  2  2  0
  2  3  1  0
  2 10  1  0
  3  4  1  0
  4  5  2  0
  4  9  1  0
  5  6  1  0
  6  7  2  0
  7  8  1  0
  8  9  2  0
 10 11  1  0
 11 23  1  0
 11 12  2  0
 12 13  1  0
 13 14  2  0
 14 15  1  0
 15 16  1  0
 15 23  2  0
 17 16  1  6
 17 18  1  0
 17 21  1  0
 18 19  1  0
 19 20  1  0
 20 21  1  0
 21 22  2  0
M  END
>  <original SMILES>  (884) 
O=C(Nc1cccnc1)Nc1cccc(CC2CCOC2=O)c1

>  <AutoDock Predicted Affinity>  (884) 
-6.25611

>  <ref_pdb>  (884) 
x0434_0

>  <ref_mols>  (884) 
x0434_0

>  <creator>  (884) 
Will Poole

>  <energy minimised>  (884) 
True

$$$$
WPC2550_minimised.pdb
     RDKit          3D

 23 25  0  0  1  0  0  0  0  0999 V2000
    8.6820   -0.6030   19.8300 O   0  0  0  0  0  0  0  0  0  0  0  0
    7.9610   -0.7500   20.7980 C   0  0  0  0  0  0  0  0  0  0  0  0
    6.6510   -0.3670   20.7800 N   0  0  0  0  0  0  0  0  0  0  0  0
    6.0040    0.3200   19.7210 C   0  0  0  0  0  0  0  0  0  0  0  0
    5.1510    1.3920   20.0130 C   0  0  0  0  0  0  0  0  0  0  0  0
    4.5760    2.0820   18.9370 C   0  0  0  0  0  0  0  0  0  0  0  0
    4.8920    1.7080   17.6220 C   0  0  0  0  0  0  0  0  0  0  0  0
    5.6930    0.6600   17.3320 N   0  0  0  0  0  0  0  0  0  0  0  0
    6.2430   -0.0070   18.3670 C   0  0  0  0  0  0  0  0  0  0  0  0
    8.3650   -1.2760   21.9990 N   0  0  0  0  0  0  0  0  0  0  0  0
    9.7200   -1.2770   22.3840 C   0  0  0  0  0  0  0  0  0  0  0  0
   10.6870   -1.8590   21.5640 C   0  0  0  0  0  0  0  0  0  0  0  0
   12.0340   -1.4780   21.6680 C   0  0  0  0  0  0  0  0  0  0  0  0
   12.4030   -0.5040   22.6050 C   0  0  0  0  0  0  0  0  0  0  0  0
   11.4430   -0.0020   23.5020 C   0  0  0  0  0  0  0  0  0  0  0  0
   11.7990    1.1110   24.4660 C   0  0  0  0  0  0  0  0  0  0  0  0
   11.1300    2.4740   24.1350 C   0  0  1  0  0  0  0  0  0  0  0  0
   11.0100    2.7670   22.6300 C   0  0  0  0  0  0  0  0  0  0  0  0
    9.6190    2.4950   22.3400 O   0  0  0  0  0  0  0  0  0  0  0  0
    8.8570    2.4730   23.4650 C   0  0  0  0  0  0  0  0  0  0  0  0
    7.6790    2.1760   23.5540 O   0  0  0  0  0  0  0  0  0  0  0  0
    9.7340    2.4830   24.5150 N   0  0  0  0  0  0  0  0  0  0  0  0
   10.1130   -0.4420   23.4250 C   0  0  0  0  0  0  0  0  0  0  0  0
  1  2  2  0
  2 10  1  0
  2  3  1  0
  3  4  1  0
  4  5  2  0
  4  9  1  0
  5  6  1  0
  6  7  2  0
  7  8  1  0
  8  9  2  0
 10 11  1  0
 11 12  2  0
 11 23  1  0
 12 13  1  0
 13 14  2  0
 14 15  1  0
 15 16  1  0
 15 23  2  0
 17 16  1  6
 17 18  1  0
 17 22  1  0
 18 19  1  0
 19 20  1  0
 20 21  2  0
 20 22  1  0
M  END
>  <original SMILES>  (885) 
O=C(Nc1cccnc1)Nc1cccc(CC2COC(=O)N2)c1

>  <AutoDock Predicted Affinity>  (885) 
-5.55075

>  <ref_pdb>  (885) 
x0434_0

>  <ref_mols>  (885) 
x0434_0

>  <creator>  (885) 
Will Poole

>  <energy minimised>  (885) 
True

$$$$
WPC2552_minimised.pdb
     RDKit          3D

 24 26  0  0  1  0  0  0  0  0999 V2000
    8.4860    0.2000   19.7380 O   0  0  0  0  0  0  0  0  0  0  0  0
    7.7910   -0.0350   20.7060 C   0  0  0  0  0  0  0  0  0  0  0  0
    6.4270    0.0210   20.6580 N   0  0  0  0  0  0  0  0  0  0  0  0
    5.7020    0.5570   19.5690 C   0  0  0  0  0  0  0  0  0  0  0  0
    4.7540    1.5590   19.8090 C   0  0  0  0  0  0  0  0  0  0  0  0
    4.1770    2.1850   18.6970 C   0  0  0  0  0  0  0  0  0  0  0  0
    4.5760    1.8110   17.4060 C   0  0  0  0  0  0  0  0  0  0  0  0
    5.4550    0.8120   17.1650 N   0  0  0  0  0  0  0  0  0  0  0  0
    6.0110    0.2110   18.2350 C   0  0  0  0  0  0  0  0  0  0  0  0
    8.2880   -0.3260   21.9440 N   0  0  0  0  0  0  0  0  0  0  0  0
    9.6490   -0.2040   22.2820 C   0  0  0  0  0  0  0  0  0  0  0  0
   10.6180   -0.9730   21.6240 C   0  0  0  0  0  0  0  0  0  0  0  0
   11.9820   -0.7540   21.8680 C   0  0  0  0  0  0  0  0  0  0  0  0
   12.3720    0.2200   22.8000 C   0  0  0  0  0  0  0  0  0  0  0  0
   11.3980    0.9580   23.4960 C   0  0  0  0  0  0  0  0  0  0  0  0
   11.7980    1.8820   24.6230 C   0  0  0  0  0  0  0  0  0  0  0  0
   11.8740    3.3930   24.2980 C   0  0  1  0  0  0  0  0  0  0  0  0
   12.9780    3.8050   23.4040 N   0  0  0  0  0  0  0  0  0  0  0  0
   12.5400    4.5770   22.3660 C   0  0  0  0  0  0  0  0  0  0  0  0
   13.2040    5.1070   21.5070 O   0  0  0  0  0  0  0  0  0  0  0  0
   11.2050    4.6520   22.5090 N   0  0  0  0  0  0  0  0  0  0  0  0
   10.6810    3.9760   23.5480 C   0  0  0  0  0  0  0  0  0  0  0  0
    9.5030    3.9040   23.8260 O   0  0  0  0  0  0  0  0  0  0  0  0
   10.0370    0.7460   23.2300 C   0  0  0  0  0  0  0  0  0  0  0  0
  1  2  2  0
  2  3  1  0
  2 10  1  0
  3  4  1  0
  4  5  2  0
  4  9  1  0
  5  6  1  0
  6  7  2  0
  7  8  1  0
  8  9  2  0
 10 11  1  0
 11 24  1  0
 11 12  2  0
 12 13  1  0
 13 14  2  0
 14 15  1  0
 15 16  1  0
 15 24  2  0
 17 16  1  6
 17 18  1  0
 17 22  1  0
 18 19  1  0
 19 20  2  0
 19 21  1  0
 21 22  1  0
 22 23  2  0
M  END
>  <original SMILES>  (886) 
O=C(Nc1cccnc1)Nc1cccc(CC2NC(=O)NC2=O)c1

>  <AutoDock Predicted Affinity>  (886) 
-6.604835

>  <ref_pdb>  (886) 
x0434_0

>  <ref_mols>  (886) 
x0434_0

>  <creator>  (886) 
Will Poole

>  <energy minimised>  (886) 
True

$$$$
WPC2560_minimised.pdb
     RDKit          3D

 24 26  0  0  1  0  0  0  0  0999 V2000
    8.5140    0.1200   19.7570 O   0  0  0  0  0  0  0  0  0  0  0  0
    7.8080   -0.1300   20.7130 C   0  0  0  0  0  0  0  0  0  0  0  0
    6.4450   -0.0470   20.6560 N   0  0  0  0  0  0  0  0  0  0  0  0
    5.7360    0.5160   19.5700 C   0  0  0  0  0  0  0  0  0  0  0  0
    4.7930    1.5210   19.8180 C   0  0  0  0  0  0  0  0  0  0  0  0
    4.2260    2.1660   18.7120 C   0  0  0  0  0  0  0  0  0  0  0  0
    4.6300    1.8080   17.4170 C   0  0  0  0  0  0  0  0  0  0  0  0
    5.5040    0.8070   17.1680 N   0  0  0  0  0  0  0  0  0  0  0  0
    6.0500    0.1870   18.2330 C   0  0  0  0  0  0  0  0  0  0  0  0
    8.2870   -0.4710   21.9460 N   0  0  0  0  0  0  0  0  0  0  0  0
    9.6460   -0.3710   22.2990 C   0  0  0  0  0  0  0  0  0  0  0  0
   10.6190   -1.1070   21.6110 C   0  0  0  0  0  0  0  0  0  0  0  0
   11.9820   -0.8780   21.8510 C   0  0  0  0  0  0  0  0  0  0  0  0
   12.3690    0.0690   22.8100 C   0  0  0  0  0  0  0  0  0  0  0  0
   11.3920    0.7620   23.5450 C   0  0  0  0  0  0  0  0  0  0  0  0
   11.7830    1.6720   24.6860 C   0  0  0  0  0  0  0  0  0  0  0  0
   11.8370    3.1840   24.3670 C   0  0  1  0  0  0  0  0  0  0  0  0
   13.0030    3.6290   23.5730 N   0  0  0  0  0  0  0  0  0  0  0  0
   12.6530    4.4540   22.5390 C   0  0  0  0  0  0  0  0  0  0  0  0
   13.6710    5.3160   21.5510 S   0  0  0  0  0  0  0  0  0  0  0  0
   11.2970    4.4730   22.5600 N   0  0  0  0  0  0  0  0  0  0  0  0
   10.6950    3.7520   23.5330 C   0  0  0  0  0  0  0  0  0  0  0  0
    9.4990    3.6510   23.7150 O   0  0  0  0  0  0  0  0  0  0  0  0
   10.0310    0.5420   23.2830 C   0  0  0  0  0  0  0  0  0  0  0  0
  1  2  2  0
  2  3  1  0
  2 10  1  0
  3  4  1  0
  4  5  2  0
  4  9  1  0
  5  6  1  0
  6  7  2  0
  7  8  1  0
  8  9  2  0
 10 11  1  0
 11 24  1  0
 11 12  2  0
 12 13  1  0
 13 14  2  0
 14 15  1  0
 15 16  1  0
 15 24  2  0
 17 16  1  6
 17 18  1  0
 17 22  1  0
 18 19  1  0
 19 20  2  0
 19 21  1  0
 21 22  1  0
 22 23  2  0
M  END
>  <original SMILES>  (887) 
O=C(Nc1cccnc1)Nc1cccc(CC2NC(=S)NC2=O)c1

>  <AutoDock Predicted Affinity>  (887) 
-6.666745

>  <ref_pdb>  (887) 
x0434_0

>  <ref_mols>  (887) 
x0434_0

>  <creator>  (887) 
Will Poole

>  <energy minimised>  (887) 
True

$$$$
WPC2183_minimised.pdb
     RDKit          3D

 24 25  0  0  1  0  0  0  0  0999 V2000
    9.0120    0.8680   20.6220 O   0  0  0  0  0  0  0  0  0  0  0  0
    8.7090   -0.3030   20.7390 C   0  0  0  0  0  0  0  0  0  0  0  0
    7.5150   -0.8070   20.3050 N   0  0  0  0  0  0  0  0  0  0  0  0
    6.5840   -0.0990   19.5070 C   0  0  0  0  0  0  0  0  0  0  0  0
    5.8720    0.9880   20.0330 C   0  0  0  0  0  0  0  0  0  0  0  0
    5.0110    1.6860   19.1730 C   0  0  0  0  0  0  0  0  0  0  0  0
    4.9200    1.3060   17.8240 C   0  0  0  0  0  0  0  0  0  0  0  0
    5.5930    0.2480   17.3190 N   0  0  0  0  0  0  0  0  0  0  0  0
    6.4090   -0.4280   18.1500 C   0  0  0  0  0  0  0  0  0  0  0  0
    9.5410   -1.2420   21.2860 N   0  0  0  0  0  0  0  0  0  0  0  0
   10.7940   -0.9290   21.8430 C   0  0  0  0  0  0  0  0  0  0  0  0
   11.9940   -1.2320   21.1830 C   0  0  0  0  0  0  0  0  0  0  0  0
   13.2190   -0.7790   21.6940 C   0  0  0  0  0  0  0  0  0  0  0  0
   13.2370   -0.0120   22.8660 C   0  0  0  0  0  0  0  0  0  0  0  0
   12.0350    0.2610   23.5420 C   0  0  0  0  0  0  0  0  0  0  0  0
   12.0270    1.0850   24.8020 C   0  0  0  0  0  0  0  0  0  0  0  0
   11.4120    2.4870   24.5880 C   0  0  0  0  0  0  0  0  0  0  0  0
   12.0220    3.2520   23.3900 C   0  0  2  0  0  0  0  0  0  0  0  0
   13.4510    3.2500   23.4620 O   0  0  0  0  0  0  0  0  0  0  0  0
   11.5540    4.7190   23.2910 C   0  0  1  0  0  0  0  0  0  0  0  0
   12.1380    5.2250   22.0880 O   0  0  0  0  0  0  0  0  0  0  0  0
   10.0070    4.8400   23.3080 C   0  0  0  0  0  0  0  0  0  0  0  0
    9.5650    6.0960   22.8050 O   0  0  0  0  0  0  0  0  0  0  0  0
   10.8190   -0.1970   23.0300 C   0  0  0  0  0  0  0  0  0  0  0  0
  1  2  2  0
  2 10  1  0
  2  3  1  0
  3  4  1  0
  4  5  2  0
  4  9  1  0
  5  6  1  0
  6  7  2  0
  7  8  1  0
  8  9  2  0
 10 11  1  0
 11 12  2  0
 11 24  1  0
 12 13  1  0
 13 14  2  0
 14 15  1  0
 15 16  1  0
 15 24  2  0
 16 17  1  0
 17 18  1  0
 18 20  1  0
 18 19  1  1
 20 22  1  0
 20 21  1  6
 22 23  1  0
M  END
>  <original SMILES>  (888) 
O=C(Nc1cccnc1)Nc1cccc(CCC(O)C(O)CO)c1

>  <AutoDock Predicted Affinity>  (888) 
-6.14325

>  <ref_pdb>  (888) 
x0434_0

>  <ref_mols>  (888) 
x0434_0

>  <creator>  (888) 
Will Poole

>  <energy minimised>  (888) 
True

$$$$
WPC1661_minimised.pdb
     RDKit          3D

 23 24  0  0  1  0  0  0  0  0999 V2000
    8.4920    0.0150   19.6390 O   0  0  0  0  0  0  0  0  0  0  0  0
    7.7710   -0.1670   20.5990 C   0  0  0  0  0  0  0  0  0  0  0  0
    6.4070   -0.1380   20.5220 N   0  0  0  0  0  0  0  0  0  0  0  0
    5.7020    0.4490   19.4460 C   0  0  0  0  0  0  0  0  0  0  0  0
    4.7580    1.4450   19.7230 C   0  0  0  0  0  0  0  0  0  0  0  0
    4.2020    2.1330   18.6380 C   0  0  0  0  0  0  0  0  0  0  0  0
    4.6170    1.8230   17.3350 C   0  0  0  0  0  0  0  0  0  0  0  0
    5.4950    0.8320   17.0590 N   0  0  0  0  0  0  0  0  0  0  0  0
    6.0310    0.1710   18.1030 C   0  0  0  0  0  0  0  0  0  0  0  0
    8.2240   -0.3330   21.8750 N   0  0  0  0  0  0  0  0  0  0  0  0
    9.5120    0.0430   22.2980 C   0  0  0  0  0  0  0  0  0  0  0  0
   10.6630   -0.5720   21.7860 C   0  0  0  0  0  0  0  0  0  0  0  0
   11.9330   -0.1280   22.1900 C   0  0  0  0  0  0  0  0  0  0  0  0
   12.0420    0.9280   23.1120 C   0  0  0  0  0  0  0  0  0  0  0  0
   10.8850    1.5480   23.6200 C   0  0  0  0  0  0  0  0  0  0  0  0
   10.9700    2.5990   24.7090 C   0  0  0  0  0  0  0  0  0  0  0  0
   10.4640    4.0230   24.3630 C   0  0  0  0  0  0  0  0  0  0  0  0
   11.3600    4.9430   23.4870 C   0  0  1  0  0  0  0  0  0  0  0  0
   11.1380    6.2770   23.9470 O   0  0  0  0  0  0  0  0  0  0  0  0
   12.8810    4.6650   23.5690 C   0  0  0  0  0  0  0  0  0  0  0  0
   13.7460    5.5200   22.6260 C   0  0  0  0  0  0  0  0  0  0  0  0
   13.3910    5.3090   21.2720 O   0  0  0  0  0  0  0  0  0  0  0  0
    9.6230    1.0940   23.2130 C   0  0  0  0  0  0  0  0  0  0  0  0
  1  2  2  0
  2 10  1  0
  2  3  1  0
  3  4  1  0
  4  5  2  0
  4  9  1  0
  5  6  1  0
  6  7  2  0
  7  8  1  0
  8  9  2  0
 10 11  1  0
 11 12  2  0
 11 23  1  0
 12 13  1  0
 13 14  2  0
 14 15  1  0
 15 16  1  0
 15 23  2  0
 16 17  1  0
 17 18  1  0
 18 20  1  0
 18 19  1  1
 20 21  1  0
 21 22  1  0
M  END
>  <original SMILES>  (889) 
O=C(Nc1cccnc1)Nc1cccc(CCC(O)CCO)c1

>  <AutoDock Predicted Affinity>  (889) 
-5.20434

>  <ref_pdb>  (889) 
x0434_0

>  <ref_mols>  (889) 
x0434_0

>  <creator>  (889) 
Will Poole

>  <energy minimised>  (889) 
True

$$$$
WPC1236_minimised.pdb
     RDKit          3D

 24 25  0  0  0  0  0  0  0  0999 V2000
    8.3780   -0.1460   19.6810 O   0  0  0  0  0  0  0  0  0  0  0  0
    7.6210   -0.3260   20.6160 C   0  0  0  0  0  0  0  0  0  0  0  0
    6.2730   -0.1280   20.5240 N   0  0  0  0  0  0  0  0  0  0  0  0
    5.6300    0.5110   19.4390 C   0  0  0  0  0  0  0  0  0  0  0  0
    4.6990    1.5230   19.6990 C   0  0  0  0  0  0  0  0  0  0  0  0
    4.1870    2.2330   18.6050 C   0  0  0  0  0  0  0  0  0  0  0  0
    4.6360    1.9310   17.3120 C   0  0  0  0  0  0  0  0  0  0  0  0
    5.5020    0.9260   17.0490 N   0  0  0  0  0  0  0  0  0  0  0  0
    5.9880    0.2400   18.1000 C   0  0  0  0  0  0  0  0  0  0  0  0
    8.0260   -0.6850   21.8710 N   0  0  0  0  0  0  0  0  0  0  0  0
    9.3670   -0.6090   22.2900 C   0  0  0  0  0  0  0  0  0  0  0  0
   10.3710   -1.3020   21.6030 C   0  0  0  0  0  0  0  0  0  0  0  0
   11.7220   -1.0530   21.8850 C   0  0  0  0  0  0  0  0  0  0  0  0
   12.0610   -0.1250   22.8810 C   0  0  0  0  0  0  0  0  0  0  0  0
   11.0510    0.5100   23.6250 C   0  0  0  0  0  0  0  0  0  0  0  0
   11.4010    1.4340   24.7690 C   0  0  0  0  0  0  0  0  0  0  0  0
   10.9000    2.8810   24.5810 C   0  0  0  0  0  0  0  0  0  0  0  0
   11.5470    3.5930   23.3740 C   0  0  0  0  0  0  0  0  0  0  0  0
   11.5830    5.1090   23.5710 C   0  0  0  0  0  0  0  0  0  0  0  0
   10.5610    5.7530   23.7680 O   0  0  0  0  0  0  0  0  0  0  0  0
   12.9920    5.7290   23.6220 C   0  0  0  0  0  0  0  0  0  0  0  0
   12.9810    6.9530   24.2030 F   0  0  0  0  0  0  0  0  0  0  0  0
   13.5370    5.8510   22.3890 F   0  0  0  0  0  0  0  0  0  0  0  0
    9.7030    0.2680   23.3230 C   0  0  0  0  0  0  0  0  0  0  0  0
  1  2  2  0
  2 10  1  0
  2  3  1  0
  3  4  1  0
  4  5  2  0
  4  9  1  0
  5  6  1  0
  6  7  2  0
  7  8  1  0
  8  9  2  0
 10 11  1  0
 11 12  2  0
 11 24  1  0
 12 13  1  0
 13 14  2  0
 14 15  1  0
 15 16  1  0
 15 24  2  0
 16 17  1  0
 17 18  1  0
 18 19  1  0
 19 21  1  0
 19 20  2  0
 21 22  1  0
 21 23  1  0
M  END
>  <original SMILES>  (890) 
O=C(Nc1cccnc1)Nc1cccc(CCCC(=O)C(F)F)c1

>  <AutoDock Predicted Affinity>  (890) 
-5.905205

>  <ref_pdb>  (890) 
x0434_0

>  <ref_mols>  (890) 
x0434_0

>  <creator>  (890) 
Will Poole

>  <energy minimised>  (890) 
True

$$$$
WPC1580_minimised.pdb
     RDKit          3D

 21 22  0  0  0  0  0  0  0  0999 V2000
    8.5320    0.0360   19.6930 O   0  0  0  0  0  0  0  0  0  0  0  0
    7.8150   -0.3180   20.6070 C   0  0  0  0  0  0  0  0  0  0  0  0
    6.4510   -0.3050   20.5200 N   0  0  0  0  0  0  0  0  0  0  0  0
    5.7460    0.3330   19.4750 C   0  0  0  0  0  0  0  0  0  0  0  0
    4.8120    1.3280   19.7860 C   0  0  0  0  0  0  0  0  0  0  0  0
    4.2580    2.0540   18.7240 C   0  0  0  0  0  0  0  0  0  0  0  0
    4.6640    1.7790   17.4100 C   0  0  0  0  0  0  0  0  0  0  0  0
    5.5360    0.7930   17.1010 N   0  0  0  0  0  0  0  0  0  0  0  0
    6.0710    0.0980   18.1230 C   0  0  0  0  0  0  0  0  0  0  0  0
    8.2710   -0.6870   21.8380 N   0  0  0  0  0  0  0  0  0  0  0  0
    9.5640   -0.3780   22.2920 C   0  0  0  0  0  0  0  0  0  0  0  0
   10.6840   -1.0870   21.8370 C   0  0  0  0  0  0  0  0  0  0  0  0
   11.9730   -0.6760   22.2150 C   0  0  0  0  0  0  0  0  0  0  0  0
   12.1340    0.4430   23.0510 C   0  0  0  0  0  0  0  0  0  0  0  0
   11.0070    1.1500   23.5070 C   0  0  0  0  0  0  0  0  0  0  0  0
   11.1380    2.3820   24.3820 C   0  0  0  0  0  0  0  0  0  0  0  0
   11.2690    3.6750   23.5550 C   0  0  0  0  0  0  0  0  0  0  0  0
   12.7340    4.0050   23.1850 C   0  0  0  0  0  0  0  0  0  0  0  0
   12.8030    4.8760   21.9270 C   0  0  0  0  0  0  0  0  0  0  0  0
   14.1180    5.3910   21.7440 O   0  0  0  0  0  0  0  0  0  0  0  0
    9.7260    0.7330   23.1240 C   0  0  0  0  0  0  0  0  0  0  0  0
  1  2  2  0
  2 10  1  0
  2  3  1  0
  3  4  1  0
  4  5  2  0
  4  9  1  0
  5  6  1  0
  6  7  2  0
  7  8  1  0
  8  9  2  0
 10 11  1  0
 11 12  2  0
 11 21  1  0
 12 13  1  0
 13 14  2  0
 14 15  1  0
 15 16  1  0
 15 21  2  0
 16 17  1  0
 17 18  1  0
 18 19  1  0
 19 20  1  0
M  END
>  <original SMILES>  (891) 
O=C(Nc1cccnc1)Nc1cccc(CCCCO)c1

>  <AutoDock Predicted Affinity>  (891) 
-5.535975

>  <ref_pdb>  (891) 
x0434_0

>  <ref_mols>  (891) 
x0434_0

>  <creator>  (891) 
Will Poole

>  <energy minimised>  (891) 
True

$$$$
WPC1560_minimised.pdb
     RDKit          3D

 20 21  0  0  0  0  0  0  0  0999 V2000
    8.5180    0.0970   19.7480 O   0  0  0  0  0  0  0  0  0  0  0  0
    7.8200   -0.2810   20.6660 C   0  0  0  0  0  0  0  0  0  0  0  0
    6.4570   -0.3220   20.5780 N   0  0  0  0  0  0  0  0  0  0  0  0
    5.7400    0.2980   19.5280 C   0  0  0  0  0  0  0  0  0  0  0  0
    4.8100    1.3010   19.8320 C   0  0  0  0  0  0  0  0  0  0  0  0
    4.2520    2.0140   18.7630 C   0  0  0  0  0  0  0  0  0  0  0  0
    4.6450    1.7160   17.4500 C   0  0  0  0  0  0  0  0  0  0  0  0
    5.5150    0.7260   17.1490 N   0  0  0  0  0  0  0  0  0  0  0  0
    6.0570    0.0450   18.1770 C   0  0  0  0  0  0  0  0  0  0  0  0
    8.2970   -0.6170   21.9010 N   0  0  0  0  0  0  0  0  0  0  0  0
    9.5640   -0.2100   22.3590 C   0  0  0  0  0  0  0  0  0  0  0  0
   10.7440   -0.7650   21.8440 C   0  0  0  0  0  0  0  0  0  0  0  0
   11.9900   -0.2430   22.2280 C   0  0  0  0  0  0  0  0  0  0  0  0
   12.0500    0.8350   23.1290 C   0  0  0  0  0  0  0  0  0  0  0  0
   10.8640    1.3840   23.6500 C   0  0  0  0  0  0  0  0  0  0  0  0
   10.8910    2.5290   24.6420 C   0  0  0  0  0  0  0  0  0  0  0  0
   10.3140    3.8510   24.1000 C   0  0  0  0  0  0  0  0  0  0  0  0
   11.2770    4.5600   23.1380 C   0  0  0  0  0  0  0  0  0  0  0  0
   10.6070    5.6880   22.5980 O   0  0  0  0  0  0  0  0  0  0  0  0
    9.6260    0.8500   23.2670 C   0  0  0  0  0  0  0  0  0  0  0  0
  1  2  2  0
  2 10  1  0
  2  3  1  0
  3  4  1  0
  4  5  2  0
  4  9  1  0
  5  6  1  0
  6  7  2  0
  7  8  1  0
  8  9  2  0
 10 11  1  0
 11 12  2  0
 11 20  1  0
 12 13  1  0
 13 14  2  0
 14 15  1  0
 15 16  1  0
 15 20  2  0
 16 17  1  0
 17 18  1  0
 18 19  1  0
M  END
>  <original SMILES>  (892) 
O=C(Nc1cccnc1)Nc1cccc(CCCO)c1

>  <AutoDock Predicted Affinity>  (892) 
-5.46972

>  <ref_pdb>  (892) 
x0434_0

>  <ref_mols>  (892) 
x0434_0

>  <creator>  (892) 
Will Poole

>  <energy minimised>  (892) 
True

$$$$
WPC1923_minimised.pdb
     RDKit          3D

 24 26  0  0  0  0  0  0  0  0999 V2000
    8.2740    0.1340   19.7000 O   0  0  0  0  0  0  0  0  0  0  0  0
    7.4860    0.0260   20.6170 C   0  0  0  0  0  0  0  0  0  0  0  0
    6.1440    0.2320   20.4760 N   0  0  0  0  0  0  0  0  0  0  0  0
    5.5290    0.8090   19.3440 C   0  0  0  0  0  0  0  0  0  0  0  0
    4.5640    1.8060   19.5330 C   0  0  0  0  0  0  0  0  0  0  0  0
    4.0710    2.4550   18.3950 C   0  0  0  0  0  0  0  0  0  0  0  0
    4.5690    2.1110   17.1310 C   0  0  0  0  0  0  0  0  0  0  0  0
    5.4640    1.1160   16.9370 N   0  0  0  0  0  0  0  0  0  0  0  0
    5.9360    0.4900   18.0310 C   0  0  0  0  0  0  0  0  0  0  0  0
    7.8360   -0.2570   21.9040 N   0  0  0  0  0  0  0  0  0  0  0  0
    9.1630   -0.2440   22.3630 C   0  0  0  0  0  0  0  0  0  0  0  0
   10.0610   -1.2410   21.9620 C   0  0  0  0  0  0  0  0  0  0  0  0
   11.4060   -1.1610   22.3500 C   0  0  0  0  0  0  0  0  0  0  0  0
   11.8480   -0.0750   23.1230 C   0  0  0  0  0  0  0  0  0  0  0  0
   10.9430    0.9160   23.5400 C   0  0  0  0  0  0  0  0  0  0  0  0
   11.4000    2.0380   24.4530 C   0  0  0  0  0  0  0  0  0  0  0  0
   11.5140    3.4280   23.7840 C   0  0  0  0  0  0  0  0  0  0  0  0
   12.5340    3.5400   22.7180 N   0  0  0  0  0  0  0  0  0  0  0  0
   13.8980    3.1060   23.0680 C   0  0  0  0  0  0  0  0  0  0  0  0
   14.8450    3.2430   21.9090 C   0  0  0  0  0  0  0  0  0  0  0  0
   14.6480    4.1050   20.9120 C   0  0  0  0  0  0  0  0  0  0  0  0
   13.4130    4.9700   20.8640 C   0  0  0  0  0  0  0  0  0  0  0  0
   12.5730    4.9050   22.1590 C   0  0  0  0  0  0  0  0  0  0  0  0
    9.5970    0.8260   23.1570 C   0  0  0  0  0  0  0  0  0  0  0  0
  1  2  2  0
  2  3  1  0
  2 10  1  0
  3  4  1  0
  4  5  2  0
  4  9  1  0
  5  6  1  0
  6  7  2  0
  7  8  1  0
  8  9  2  0
 10 11  1  0
 11 24  1  0
 11 12  2  0
 12 13  1  0
 13 14  2  0
 14 15  1  0
 15 16  1  0
 15 24  2  0
 16 17  1  0
 17 18  1  0
 18 19  1  0
 18 23  1  0
 19 20  1  0
 20 21  2  0
 21 22  1  0
 22 23  1  0
M  END
>  <original SMILES>  (893) 
O=C(Nc1cccnc1)Nc1cccc(CCN2CC=CCC2)c1

>  <AutoDock Predicted Affinity>  (893) 
-6.12788

>  <ref_pdb>  (893) 
x0434_0

>  <ref_mols>  (893) 
x0434_0

>  <creator>  (893) 
Will Poole

>  <energy minimised>  (893) 
True

$$$$
WPC1734_minimised.pdb
     RDKit          3D

 24 26  0  0  0  0  0  0  0  0999 V2000
    8.5780   -0.3110   19.9220 O   0  0  0  0  0  0  0  0  0  0  0  0
    7.7750   -0.7780   20.7040 C   0  0  0  0  0  0  0  0  0  0  0  0
    6.4240   -0.6920   20.5180 N   0  0  0  0  0  0  0  0  0  0  0  0
    5.8030    0.0630   19.4980 C   0  0  0  0  0  0  0  0  0  0  0  0
    4.8570    1.0380   19.8400 C   0  0  0  0  0  0  0  0  0  0  0  0
    4.3290    1.8230   18.8070 C   0  0  0  0  0  0  0  0  0  0  0  0
    4.7630    1.6170   17.4890 C   0  0  0  0  0  0  0  0  0  0  0  0
    5.6590    0.6640   17.1510 N   0  0  0  0  0  0  0  0  0  0  0  0
    6.1820   -0.0790   18.1470 C   0  0  0  0  0  0  0  0  0  0  0  0
    8.0910   -1.3610   21.8980 N   0  0  0  0  0  0  0  0  0  0  0  0
    9.2800   -1.0870   22.5920 C   0  0  0  0  0  0  0  0  0  0  0  0
   10.5410   -1.2940   22.0150 C   0  0  0  0  0  0  0  0  0  0  0  0
   11.6900   -0.7990   22.6480 C   0  0  0  0  0  0  0  0  0  0  0  0
   11.5670   -0.0770   23.8470 C   0  0  0  0  0  0  0  0  0  0  0  0
   10.2990    0.1480   24.4090 C   0  0  0  0  0  0  0  0  0  0  0  0
   10.1090    1.1440   25.5390 C   0  0  0  0  0  0  0  0  0  0  0  0
   10.5160    2.5900   25.1390 C   0  0  0  0  0  0  0  0  0  0  0  0
   10.2050    2.9500   23.7400 N   0  0  0  0  0  0  0  0  0  0  0  0
    8.8460    2.8570   23.2080 C   0  0  0  0  0  0  0  0  0  0  0  0
    9.1880    2.4740   21.8010 C   0  0  0  0  0  0  0  0  0  0  0  0
   10.4610    2.4990   21.5810 N   0  0  0  0  0  0  0  0  0  0  0  0
   11.1500    2.8950   22.7280 C   0  0  0  0  0  0  0  0  0  0  0  0
   12.8090    2.9920   22.9040 S   0  0  0  0  0  0  0  0  0  0  0  0
    9.1630   -0.4050   23.8040 C   0  0  0  0  0  0  0  0  0  0  0  0
  1  2  2  0
  2  3  1  0
  2 10  1  0
  3  4  1  0
  4  5  2  0
  4  9  1  0
  5  6  1  0
  6  7  2  0
  7  8  1  0
  8  9  2  0
 10 11  1  0
 11 24  1  0
 11 12  2  0
 12 13  1  0
 13 14  2  0
 14 15  1  0
 15 16  1  0
 15 24  2  0
 16 17  1  0
 17 18  1  0
 18 19  1  0
 18 22  1  0
 19 20  1  0
 20 21  2  0
 21 22  1  0
 22 23  2  0
M  END
>  <original SMILES>  (894) 
O=C(Nc1cccnc1)Nc1cccc(CCN2CC=NC2=S)c1

>  <AutoDock Predicted Affinity>  (894) 
-5.18762

>  <ref_pdb>  (894) 
x0434_0

>  <ref_mols>  (894) 
x0434_0

>  <creator>  (894) 
Will Poole

>  <energy minimised>  (894) 
True

$$$$
WPC1106_minimised.pdb
     RDKit          3D

 23 25  0  0  0  0  0  0  0  0999 V2000
    8.4920   -0.1510   19.6850 O   0  0  0  0  0  0  0  0  0  0  0  0
    7.8070   -0.2480   20.6830 C   0  0  0  0  0  0  0  0  0  0  0  0
    6.4480   -0.0910   20.6630 N   0  0  0  0  0  0  0  0  0  0  0  0
    5.7280    0.4650   19.5780 C   0  0  0  0  0  0  0  0  0  0  0  0
    4.7940    1.4740   19.8360 C   0  0  0  0  0  0  0  0  0  0  0  0
    4.2120    2.1190   18.7380 C   0  0  0  0  0  0  0  0  0  0  0  0
    4.5920    1.7550   17.4390 C   0  0  0  0  0  0  0  0  0  0  0  0
    5.4510    0.7430   17.1790 N   0  0  0  0  0  0  0  0  0  0  0  0
    6.0140    0.1260   18.2360 C   0  0  0  0  0  0  0  0  0  0  0  0
    8.3120   -0.4710   21.9340 N   0  0  0  0  0  0  0  0  0  0  0  0
    9.6840   -0.3870   22.2430 C   0  0  0  0  0  0  0  0  0  0  0  0
   10.6130   -1.2070   21.5890 C   0  0  0  0  0  0  0  0  0  0  0  0
   11.9890   -1.0130   21.7830 C   0  0  0  0  0  0  0  0  0  0  0  0
   12.4310   -0.0120   22.6610 C   0  0  0  0  0  0  0  0  0  0  0  0
   11.4990    0.7770   23.3570 C   0  0  0  0  0  0  0  0  0  0  0  0
   11.9630    1.7830   24.3880 C   0  0  0  0  0  0  0  0  0  0  0  0
   11.7570    3.2620   23.9930 C   0  0  0  0  0  0  0  0  0  0  0  0
   12.6260    3.7350   22.9000 N   0  0  0  0  0  0  0  0  0  0  0  0
   14.0850    3.6070   23.0270 C   0  0  0  0  0  0  0  0  0  0  0  0
   14.6800    4.5860   22.0050 C   0  0  0  0  0  0  0  0  0  0  0  0
   13.4800    5.3540   21.4540 C   0  0  0  0  0  0  0  0  0  0  0  0
   12.3790    5.1140   22.4900 C   0  0  0  0  0  0  0  0  0  0  0  0
   10.1250    0.5880   23.1430 C   0  0  0  0  0  0  0  0  0  0  0  0
  1  2  2  0
  2  3  1  0
  2 10  1  0
  3  4  1  0
  4  5  2  0
  4  9  1  0
  5  6  1  0
  6  7  2  0
  7  8  1  0
  8  9  2  0
 10 11  1  0
 11 23  1  0
 11 12  2  0
 12 13  1  0
 13 14  2  0
 14 15  1  0
 15 16  1  0
 15 23  2  0
 16 17  1  0
 17 18  1  0
 18 19  1  0
 18 22  1  0
 19 20  1  0
 20 21  1  0
 21 22  1  0
M  END
>  <original SMILES>  (895) 
O=C(Nc1cccnc1)Nc1cccc(CCN2CCCC2)c1

>  <AutoDock Predicted Affinity>  (895) 
-6.112737

>  <ref_pdb>  (895) 
x0434_0

>  <ref_mols>  (895) 
x0434_0

>  <creator>  (895) 
Will Poole

>  <energy minimised>  (895) 
True

$$$$
WPC1777_minimised.pdb
     RDKit          3D

 24 26  0  0  0  0  0  0  0  0999 V2000
    8.8660    0.8890   20.5390 O   0  0  0  0  0  0  0  0  0  0  0  0
    8.6020   -0.2850   20.7060 C   0  0  0  0  0  0  0  0  0  0  0  0
    7.4320   -0.8350   20.2630 N   0  0  0  0  0  0  0  0  0  0  0  0
    6.4910   -0.1480   19.4580 C   0  0  0  0  0  0  0  0  0  0  0  0
    5.7890    0.9540   19.9700 C   0  0  0  0  0  0  0  0  0  0  0  0
    4.9410    1.6550   19.1000 C   0  0  0  0  0  0  0  0  0  0  0  0
    4.8520    1.2620   17.7550 C   0  0  0  0  0  0  0  0  0  0  0  0
    5.5140    0.1900   17.2650 N   0  0  0  0  0  0  0  0  0  0  0  0
    6.3170   -0.4900   18.1050 C   0  0  0  0  0  0  0  0  0  0  0  0
    9.4450   -1.1630   21.3350 N   0  0  0  0  0  0  0  0  0  0  0  0
   10.6350   -0.7500   21.9620 C   0  0  0  0  0  0  0  0  0  0  0  0
   11.8980   -1.0490   21.4330 C   0  0  0  0  0  0  0  0  0  0  0  0
   13.0490   -0.4620   21.9840 C   0  0  0  0  0  0  0  0  0  0  0  0
   12.9300    0.4340   23.0590 C   0  0  0  0  0  0  0  0  0  0  0  0
   11.6620    0.7120   23.6000 C   0  0  0  0  0  0  0  0  0  0  0  0
   11.4790    1.6910   24.7360 C   0  0  0  0  0  0  0  0  0  0  0  0
   10.6850    2.9510   24.3270 C   0  0  0  0  0  0  0  0  0  0  0  0
   11.3510    3.7890   23.2950 N   0  0  0  0  0  0  0  0  0  0  0  0
   12.7370    4.2100   23.5660 C   0  0  0  0  0  0  0  0  0  0  0  0
   12.7470    5.1560   24.7790 C   0  0  0  0  0  0  0  0  0  0  0  0
   11.8890    6.4010   24.5630 C   0  0  0  0  0  0  0  0  0  0  0  0
   10.4920    6.0350   23.9980 C   0  0  0  0  0  0  0  0  0  0  0  0
   10.5430    4.9560   22.8940 C   0  0  0  0  0  0  0  0  0  0  0  0
   10.5250    0.1080   23.0570 C   0  0  0  0  0  0  0  0  0  0  0  0
  1  2  2  0
  2  3  1  0
  2 10  1  0
  3  4  1  0
  4  5  2  0
  4  9  1  0
  5  6  1  0
  6  7  2  0
  7  8  1  0
  8  9  2  0
 10 11  1  0
 11 24  1  0
 11 12  2  0
 12 13  1  0
 13 14  2  0
 14 15  1  0
 15 16  1  0
 15 24  2  0
 16 17  1  0
 17 18  1  0
 18 19  1  0
 18 23  1  0
 19 20  1  0
 20 21  1  0
 21 22  1  0
 22 23  1  0
M  END
>  <original SMILES>  (896) 
O=C(Nc1cccnc1)Nc1cccc(CCN2CCCCC2)c1

>  <AutoDock Predicted Affinity>  (896) 
-6.517089

>  <ref_pdb>  (896) 
x0434_0

>  <ref_mols>  (896) 
x0434_0

>  <creator>  (896) 
Will Poole

>  <energy minimised>  (896) 
True

$$$$
WPC2654_minimised.pdb
     RDKit          3D

 24 26  0  0  0  0  0  0  0  0999 V2000
    8.7900    0.4820   19.9780 O   0  0  0  0  0  0  0  0  0  0  0  0
    8.3900   -0.4920   20.5780 C   0  0  0  0  0  0  0  0  0  0  0  0
    7.0790   -0.8660   20.4810 N   0  0  0  0  0  0  0  0  0  0  0  0
    6.1850   -0.1700   19.6310 C   0  0  0  0  0  0  0  0  0  0  0  0
    5.4110    0.8870   20.1290 C   0  0  0  0  0  0  0  0  0  0  0  0
    4.7160    1.6810   19.2040 C   0  0  0  0  0  0  0  0  0  0  0  0
    4.8360    1.4110   17.8300 C   0  0  0  0  0  0  0  0  0  0  0  0
    5.5630    0.3790   17.3490 N   0  0  0  0  0  0  0  0  0  0  0  0
    6.2340   -0.3780   18.2390 C   0  0  0  0  0  0  0  0  0  0  0  0
    9.1760   -1.2740   21.3830 N   0  0  0  0  0  0  0  0  0  0  0  0
   10.5090   -0.9880   21.7680 C   0  0  0  0  0  0  0  0  0  0  0  0
   11.4020   -2.0240   22.0540 C   0  0  0  0  0  0  0  0  0  0  0  0
   12.7120   -1.7290   22.4620 C   0  0  0  0  0  0  0  0  0  0  0  0
   13.0790   -0.4010   22.7400 C   0  0  0  0  0  0  0  0  0  0  0  0
   12.1450    0.6360   22.5910 C   0  0  0  0  0  0  0  0  0  0  0  0
   12.4210    1.9880   23.2630 C   0  0  0  0  0  0  0  0  0  0  0  0
   11.2930    3.0610   23.2510 C   0  0  0  0  0  0  0  0  0  0  0  0
    9.9590    2.5380   23.6240 N   0  0  0  0  0  0  0  0  0  0  0  0
    9.7680    1.7430   24.8590 C   0  0  0  0  0  0  0  0  0  0  0  0
    8.5160    0.8280   24.7440 C   0  0  0  0  0  0  0  0  0  0  0  0
    7.2970    1.5510   24.3030 N   0  0  0  0  0  0  0  0  0  0  0  0
    7.5290    2.3100   23.0450 C   0  0  0  0  0  0  0  0  0  0  0  0
    8.7680    3.2480   23.1040 C   0  0  0  0  0  0  0  0  0  0  0  0
   10.9130    0.3350   21.9850 C   0  0  0  0  0  0  0  0  0  0  0  0
  1  2  2  0
  2  3  1  0
  2 10  1  0
  3  4  1  0
  4  5  2  0
  4  9  1  0
  5  6  1  0
  6  7  2  0
  7  8  1  0
  8  9  2  0
 10 11  1  0
 11 24  1  0
 11 12  2  0
 12 13  1  0
 13 14  2  0
 14 15  1  0
 15 16  1  0
 15 24  2  0
 16 17  1  0
 17 18  1  0
 18 19  1  0
 18 23  1  0
 19 20  1  0
 20 21  1  0
 21 22  1  0
 22 23  1  0
M  END
>  <original SMILES>  (897) 
O=C(Nc1cccnc1)Nc1cccc(CCN2CCNCC2)c1

>  <AutoDock Predicted Affinity>  (897) 
-6.101584

>  <ref_pdb>  (897) 
x0434_0

>  <ref_mols>  (897) 
x0434_0

>  <creator>  (897) 
Will Poole

>  <energy minimised>  (897) 
True

$$$$
WPC2611_minimised.pdb
     RDKit          3D

 24 26  0  0  0  0  0  0  0  0999 V2000
    8.5630   -0.6370   19.8470 O   0  0  0  0  0  0  0  0  0  0  0  0
    7.8760   -0.6690   20.8470 C   0  0  0  0  0  0  0  0  0  0  0  0
    6.5390   -0.3770   20.8140 N   0  0  0  0  0  0  0  0  0  0  0  0
    5.8690    0.2350   19.7240 C   0  0  0  0  0  0  0  0  0  0  0  0
    4.9810    1.2870   19.9810 C   0  0  0  0  0  0  0  0  0  0  0  0
    4.4100    1.9470   18.8850 C   0  0  0  0  0  0  0  0  0  0  0  0
    4.7560    1.5530   17.5840 C   0  0  0  0  0  0  0  0  0  0  0  0
    5.5810    0.5150   17.3240 N   0  0  0  0  0  0  0  0  0  0  0  0
    6.1340   -0.1160   18.3800 C   0  0  0  0  0  0  0  0  0  0  0  0
    8.3430   -0.9610   22.1030 N   0  0  0  0  0  0  0  0  0  0  0  0
    9.6970   -0.8360   22.4860 C   0  0  0  0  0  0  0  0  0  0  0  0
   10.7300   -1.3620   21.6990 C   0  0  0  0  0  0  0  0  0  0  0  0
   12.0640   -0.9950   21.9320 C   0  0  0  0  0  0  0  0  0  0  0  0
   12.3630   -0.1040   22.9730 C   0  0  0  0  0  0  0  0  0  0  0  0
   11.3380    0.3560   23.8180 C   0  0  0  0  0  0  0  0  0  0  0  0
   11.6410    1.3120   24.9490 C   0  0  0  0  0  0  0  0  0  0  0  0
   11.0430    2.7230   24.7400 C   0  0  0  0  0  0  0  0  0  0  0  0
   11.6620    3.4730   23.6330 N   0  0  0  0  0  0  0  0  0  0  0  0
   12.9510    4.1340   23.8690 C   0  0  0  0  0  0  0  0  0  0  0  0
   13.3120    5.0560   22.7100 C   0  0  0  0  0  0  0  0  0  0  0  0
   12.1860    4.5760   21.3660 S   0  0  0  0  0  0  0  0  0  0  0  0
   11.1160    3.5300   22.3660 C   0  0  0  0  0  0  0  0  0  0  0  0
    9.7900    2.6640   21.8210 S   0  0  0  0  0  0  0  0  0  0  0  0
   10.0090   -0.0300   23.5850 C   0  0  0  0  0  0  0  0  0  0  0  0
  1  2  2  0
  2  3  1  0
  2 10  1  0
  3  4  1  0
  4  5  2  0
  4  9  1  0
  5  6  1  0
  6  7  2  0
  7  8  1  0
  8  9  2  0
 10 11  1  0
 11 24  1  0
 11 12  2  0
 12 13  1  0
 13 14  2  0
 14 15  1  0
 15 16  1  0
 15 24  2  0
 16 17  1  0
 17 18  1  0
 18 19  1  0
 18 22  1  0
 19 20  1  0
 20 21  1  0
 21 22  1  0
 22 23  2  0
M  END
>  <original SMILES>  (898) 
O=C(Nc1cccnc1)Nc1cccc(CCN2CCSC2=S)c1

>  <AutoDock Predicted Affinity>  (898) 
-4.88433

>  <ref_pdb>  (898) 
x0434_0

>  <ref_mols>  (898) 
x0434_0

>  <creator>  (898) 
Will Poole

>  <energy minimised>  (898) 
True

$$$$
WPC1919_minimised.pdb
     RDKit          3D

 24 26  0  0  0  0  0  0  0  0999 V2000
    8.5700   -0.0800   19.6580 O   0  0  0  0  0  0  0  0  0  0  0  0
    7.8120   -0.3940   20.5550 C   0  0  0  0  0  0  0  0  0  0  0  0
    6.4520   -0.3530   20.4330 N   0  0  0  0  0  0  0  0  0  0  0  0
    5.7800    0.3210   19.3880 C   0  0  0  0  0  0  0  0  0  0  0  0
    4.8400    1.3090   19.7070 C   0  0  0  0  0  0  0  0  0  0  0  0
    4.3080    2.0650   18.6550 C   0  0  0  0  0  0  0  0  0  0  0  0
    4.7420    1.8270   17.3430 C   0  0  0  0  0  0  0  0  0  0  0  0
    5.6190    0.8490   17.0250 N   0  0  0  0  0  0  0  0  0  0  0  0
    6.1350    0.1250   18.0380 C   0  0  0  0  0  0  0  0  0  0  0  0
    8.2130   -0.7310   21.8130 N   0  0  0  0  0  0  0  0  0  0  0  0
    9.4380   -0.2980   22.3460 C   0  0  0  0  0  0  0  0  0  0  0  0
   10.6640   -0.8170   21.9070 C   0  0  0  0  0  0  0  0  0  0  0  0
   11.8650   -0.2690   22.3890 C   0  0  0  0  0  0  0  0  0  0  0  0
   11.8300    0.8070   23.2930 C   0  0  0  0  0  0  0  0  0  0  0  0
   10.5960    1.3290   23.7240 C   0  0  0  0  0  0  0  0  0  0  0  0
   10.5230    2.5000   24.6840 C   0  0  0  0  0  0  0  0  0  0  0  0
   10.1190    3.8290   24.0150 C   0  0  0  0  0  0  0  0  0  0  0  0
   11.1230    4.2530   23.0420 N   0  0  0  0  0  0  0  0  0  0  0  0
   12.3070    4.8410   23.3940 C   0  0  0  0  0  0  0  0  0  0  0  0
   12.5950    5.1220   24.5420 O   0  0  0  0  0  0  0  0  0  0  0  0
   13.2310    5.0790   22.2400 C   0  0  0  0  0  0  0  0  0  0  0  0
   14.7160    5.0240   22.4810 C   0  0  0  0  0  0  0  0  0  0  0  0
   14.0480    3.9320   21.7030 C   0  0  0  0  0  0  0  0  0  0  0  0
    9.4040    0.7630   23.2560 C   0  0  0  0  0  0  0  0  0  0  0  0
  1  2  2  0
  2  3  1  0
  2 10  1  0
  3  4  1  0
  4  5  2  0
  4  9  1  0
  5  6  1  0
  6  7  2  0
  7  8  1  0
  8  9  2  0
 10 11  1  0
 11 24  1  0
 11 12  2  0
 12 13  1  0
 13 14  2  0
 14 15  1  0
 15 16  1  0
 15 24  2  0
 16 17  1  0
 17 18  1  0
 18 19  1  0
 19 20  2  0
 19 21  1  0
 21 22  1  0
 21 23  1  0
 22 23  1  0
M  END
>  <original SMILES>  (899) 
O=C(Nc1cccnc1)Nc1cccc(CCNC(=O)C2CC2)c1

>  <AutoDock Predicted Affinity>  (899) 
-5.81039

>  <ref_pdb>  (899) 
x0434_0

>  <ref_mols>  (899) 
x0434_0

>  <creator>  (899) 
Will Poole

>  <energy minimised>  (899) 
True

$$$$
WPC1195_minimised.pdb
     RDKit          3D

 22 23  0  0  0  0  0  0  0  0999 V2000
    8.5750    0.0620   19.7270 O   0  0  0  0  0  0  0  0  0  0  0  0
    7.8350   -0.2340   20.6430 C   0  0  0  0  0  0  0  0  0  0  0  0
    6.4730   -0.2310   20.5260 N   0  0  0  0  0  0  0  0  0  0  0  0
    5.7850    0.3940   19.4590 C   0  0  0  0  0  0  0  0  0  0  0  0
    4.8380    1.3840   19.7470 C   0  0  0  0  0  0  0  0  0  0  0  0
    4.2990    2.1030   18.6710 C   0  0  0  0  0  0  0  0  0  0  0  0
    4.7360    1.8300   17.3670 C   0  0  0  0  0  0  0  0  0  0  0  0
    5.6200    0.8480   17.0800 N   0  0  0  0  0  0  0  0  0  0  0  0
    6.1360    0.1550   18.1140 C   0  0  0  0  0  0  0  0  0  0  0  0
    8.2630   -0.5070   21.9090 N   0  0  0  0  0  0  0  0  0  0  0  0
    9.5010   -0.0550   22.3980 C   0  0  0  0  0  0  0  0  0  0  0  0
   10.7170   -0.5910   21.9480 C   0  0  0  0  0  0  0  0  0  0  0  0
   11.9300   -0.0200   22.3710 C   0  0  0  0  0  0  0  0  0  0  0  0
   11.9190    1.0930   23.2320 C   0  0  0  0  0  0  0  0  0  0  0  0
   10.6970    1.6310   23.6740 C   0  0  0  0  0  0  0  0  0  0  0  0
   10.6430    2.8570   24.5650 C   0  0  0  0  0  0  0  0  0  0  0  0
   10.2450    4.1350   23.8020 C   0  0  0  0  0  0  0  0  0  0  0  0
   11.3270    4.5490   22.9050 N   0  0  0  0  0  0  0  0  0  0  0  0
   12.3720    5.3550   23.2920 C   0  0  0  0  0  0  0  0  0  0  0  0
   12.4460    6.1500   24.7580 S   0  0  0  0  0  0  0  0  0  0  0  0
   13.6540    5.4910   22.0490 S   0  0  0  0  0  0  0  0  0  0  0  0
    9.4930    1.0430   23.2630 C   0  0  0  0  0  0  0  0  0  0  0  0
  1  2  2  0
  2 10  1  0
  2  3  1  0
  3  4  1  0
  4  5  2  0
  4  9  1  0
  5  6  1  0
  6  7  2  0
  7  8  1  0
  8  9  2  0
 10 11  1  0
 11 12  2  0
 11 22  1  0
 12 13  1  0
 13 14  2  0
 14 15  1  0
 15 16  1  0
 15 22  2  0
 16 17  1  0
 17 18  1  0
 18 19  1  0
 19 20  2  0
 19 21  1  0
M  END
>  <original SMILES>  (900) 
O=C(Nc1cccnc1)Nc1cccc(CCNC(=S)S)c1

>  <AutoDock Predicted Affinity>  (900) 
-5.37396

>  <ref_pdb>  (900) 
x0434_0

>  <ref_mols>  (900) 
x0434_0

>  <creator>  (900) 
Will Poole

>  <energy minimised>  (900) 
True

$$$$
WPC1470_minimised.pdb
     RDKit          3D

 19 20  0  0  0  0  0  0  0  0999 V2000
    8.7700    0.2260   19.9340 O   0  0  0  0  0  0  0  0  0  0  0  0
    8.0900    0.1180   20.9310 C   0  0  0  0  0  0  0  0  0  0  0  0
    6.7240    0.0640   20.8830 N   0  0  0  0  0  0  0  0  0  0  0  0
    5.9700    0.5000   19.7650 C   0  0  0  0  0  0  0  0  0  0  0  0
    4.9990    1.4890   19.9610 C   0  0  0  0  0  0  0  0  0  0  0  0
    4.3970    2.0460   18.8270 C   0  0  0  0  0  0  0  0  0  0  0  0
    4.7930    1.6190   17.5530 C   0  0  0  0  0  0  0  0  0  0  0  0
    5.6870    0.6240   17.3530 N   0  0  0  0  0  0  0  0  0  0  0  0
    6.2710    0.0910   18.4470 C   0  0  0  0  0  0  0  0  0  0  0  0
    8.6080    0.1220   22.1950 N   0  0  0  0  0  0  0  0  0  0  0  0
    9.9100    0.5690   22.4990 C   0  0  0  0  0  0  0  0  0  0  0  0
   11.0260   -0.2600   22.3140 C   0  0  0  0  0  0  0  0  0  0  0  0
   12.3100    0.2280   22.6120 C   0  0  0  0  0  0  0  0  0  0  0  0
   12.4720    1.5390   23.0920 C   0  0  0  0  0  0  0  0  0  0  0  0
   11.3600    2.3930   23.2260 C   0  0  0  0  0  0  0  0  0  0  0  0
   11.4950    3.8400   23.6940 C   0  0  0  0  0  0  0  0  0  0  0  0
   12.4620    4.7200   22.8720 C   0  0  0  0  0  0  0  0  0  0  0  0
   13.8270    4.4420   23.1790 O   0  0  0  0  0  0  0  0  0  0  0  0
   10.0800    1.8890   22.9360 C   0  0  0  0  0  0  0  0  0  0  0  0
  1  2  2  0
  2 10  1  0
  2  3  1  0
  3  4  1  0
  4  5  2  0
  4  9  1  0
  5  6  1  0
  6  7  2  0
  7  8  1  0
  8  9  2  0
 10 11  1  0
 11 12  2  0
 11 19  1  0
 12 13  1  0
 13 14  2  0
 14 15  1  0
 15 16  1  0
 15 19  2  0
 16 17  1  0
 17 18  1  0
M  END
>  <original SMILES>  (901) 
O=C(Nc1cccnc1)Nc1cccc(CCO)c1

>  <AutoDock Predicted Affinity>  (901) 
-5.747987

>  <ref_pdb>  (901) 
x0434_0

>  <ref_mols>  (901) 
x0434_0

>  <creator>  (901) 
Will Poole

>  <energy minimised>  (901) 
True

$$$$
WPC2659_minimised.pdb
     RDKit          3D

 23 25  0  0  0  0  0  0  0  0999 V2000
    8.5200   -0.2000   19.6290 O   0  0  0  0  0  0  0  0  0  0  0  0
    7.7530   -0.5040   20.5210 C   0  0  0  0  0  0  0  0  0  0  0  0
    6.3940   -0.4310   20.4000 N   0  0  0  0  0  0  0  0  0  0  0  0
    5.7330    0.2600   19.3610 C   0  0  0  0  0  0  0  0  0  0  0  0
    4.7940    1.2460   19.6870 C   0  0  0  0  0  0  0  0  0  0  0  0
    4.2600    2.0080   18.6390 C   0  0  0  0  0  0  0  0  0  0  0  0
    4.6950    1.7780   17.3260 C   0  0  0  0  0  0  0  0  0  0  0  0
    5.5750    0.8040   17.0020 N   0  0  0  0  0  0  0  0  0  0  0  0
    6.0910    0.0750   18.0100 C   0  0  0  0  0  0  0  0  0  0  0  0
    8.1340   -0.8670   21.7790 N   0  0  0  0  0  0  0  0  0  0  0  0
    9.3480   -0.4550   22.3500 C   0  0  0  0  0  0  0  0  0  0  0  0
   10.5890   -0.8770   21.8520 C   0  0  0  0  0  0  0  0  0  0  0  0
   11.7740   -0.3320   22.3750 C   0  0  0  0  0  0  0  0  0  0  0  0
   11.7070    0.6380   23.3900 C   0  0  0  0  0  0  0  0  0  0  0  0
   10.4590    1.0520   23.8900 C   0  0  0  0  0  0  0  0  0  0  0  0
   10.3510    2.1010   24.9770 C   0  0  0  0  0  0  0  0  0  0  0  0
   10.5500    3.5370   24.4590 C   0  0  0  0  0  0  0  0  0  0  0  0
   11.9430    3.6910   24.1600 O   0  0  0  0  0  0  0  0  0  0  0  0
   12.3110    4.9520   23.5920 C   0  0  0  0  0  0  0  0  0  0  0  0
   13.7280    4.7570   23.0780 C   0  0  0  0  0  0  0  0  0  0  0  0
   13.9340    4.3220   21.6540 C   0  0  0  0  0  0  0  0  0  0  0  0
   14.3550    5.7000   22.0860 C   0  0  0  0  0  0  0  0  0  0  0  0
    9.2840    0.4950   23.3710 C   0  0  0  0  0  0  0  0  0  0  0  0
  1  2  2  0
  2  3  1  0
  2 10  1  0
  3  4  1  0
  4  5  2  0
  4  9  1  0
  5  6  1  0
  6  7  2  0
  7  8  1  0
  8  9  2  0
 10 11  1  0
 11 23  1  0
 11 12  2  0
 12 13  1  0
 13 14  2  0
 14 15  1  0
 15 16  1  0
 15 23  2  0
 16 17  1  0
 17 18  1  0
 18 19  1  0
 19 20  1  0
 20 21  1  0
 20 22  1  0
 21 22  1  0
M  END
>  <original SMILES>  (902) 
O=C(Nc1cccnc1)Nc1cccc(CCOCC2CC2)c1

>  <AutoDock Predicted Affinity>  (902) 
-5.54747

>  <ref_pdb>  (902) 
x0434_0

>  <ref_mols>  (902) 
x0434_0

>  <creator>  (902) 
Will Poole

>  <energy minimised>  (902) 
True

$$$$
WPC2031_minimised.pdb
     RDKit          3D

 24 26  0  0  0  0  0  0  0  0999 V2000
    8.6810    0.1940   19.9020 O   0  0  0  0  0  0  0  0  0  0  0  0
    8.0400   -0.1130   20.8860 C   0  0  0  0  0  0  0  0  0  0  0  0
    6.6720   -0.0670   20.8900 N   0  0  0  0  0  0  0  0  0  0  0  0
    5.9080    0.4460   19.8100 C   0  0  0  0  0  0  0  0  0  0  0  0
    4.9630    1.4500   20.0530 C   0  0  0  0  0  0  0  0  0  0  0  0
    4.3620    2.0600   18.9440 C   0  0  0  0  0  0  0  0  0  0  0  0
    4.7290    1.6640   17.6480 C   0  0  0  0  0  0  0  0  0  0  0  0
    5.5950    0.6550   17.4040 N   0  0  0  0  0  0  0  0  0  0  0  0
    6.1790    0.0750   18.4720 C   0  0  0  0  0  0  0  0  0  0  0  0
    8.6260   -0.5000   22.0610 N   0  0  0  0  0  0  0  0  0  0  0  0
   10.0260   -0.5480   22.2190 C   0  0  0  0  0  0  0  0  0  0  0  0
   10.7600   -1.5300   21.5440 C   0  0  0  0  0  0  0  0  0  0  0  0
   12.1590   -1.4550   21.4970 C   0  0  0  0  0  0  0  0  0  0  0  0
   12.8270   -0.4090   22.1420 C   0  0  0  0  0  0  0  0  0  0  0  0
   12.0990    0.5550   22.8560 C   0  0  0  0  0  0  0  0  0  0  0  0
   12.8470    1.6650   23.5650 C   0  0  0  0  0  0  0  0  0  0  0  0
   12.2530    3.0660   23.3270 C   0  0  0  0  0  0  0  0  0  0  0  0
   11.2300    3.2930   24.3110 O   0  0  0  0  0  0  0  0  0  0  0  0
   10.4680    4.4760   23.9970 N   0  0  0  0  0  0  0  0  0  0  0  0
    9.4500    4.5100   23.0820 C   0  0  0  0  0  0  0  0  0  0  0  0
    9.2160    5.8460   22.8870 C   0  0  0  0  0  0  0  0  0  0  0  0
   10.0620    6.6060   23.6690 N   0  0  0  0  0  0  0  0  0  0  0  0
   10.8340    5.7570   24.3220 C   0  0  0  0  0  0  0  0  0  0  0  0
   10.6940    0.4790   22.8980 C   0  0  0  0  0  0  0  0  0  0  0  0
  1  2  2  0
  2  3  1  0
  2 10  1  0
  3  4  1  0
  4  5  2  0
  4  9  1  0
  5  6  1  0
  6  7  2  0
  7  8  1  0
  8  9  2  0
 10 11  1  0
 11 24  1  0
 11 12  2  0
 12 13  1  0
 13 14  2  0
 14 15  1  0
 15 16  1  0
 15 24  2  0
 16 17  1  0
 17 18  1  0
 18 19  1  0
 19 20  1  0
 19 23  1  0
 20 21  2  0
 21 22  1  0
 22 23  2  0
M  END
>  <original SMILES>  (903) 
O=C(Nc1cccnc1)Nc1cccc(CCOn2ccnc2)c1

>  <AutoDock Predicted Affinity>  (903) 
-5.7066

>  <ref_pdb>  (903) 
x0434_0

>  <ref_mols>  (903) 
x0434_0

>  <creator>  (903) 
Will Poole

>  <energy minimised>  (903) 
True

$$$$
WPC1362_minimised.pdb
     RDKit          3D

 21 22  0  0  0  0  0  0  0  0999 V2000
    8.4990   -0.0310   19.6800 O   0  0  0  0  0  0  0  0  0  0  0  0
    7.7850   -0.2330   20.6420 C   0  0  0  0  0  0  0  0  0  0  0  0
    6.4200   -0.1700   20.5780 N   0  0  0  0  0  0  0  0  0  0  0  0
    5.7170    0.4260   19.5050 C   0  0  0  0  0  0  0  0  0  0  0  0
    4.7820    1.4320   19.7830 C   0  0  0  0  0  0  0  0  0  0  0  0
    4.2290    2.1240   18.6990 C   0  0  0  0  0  0  0  0  0  0  0  0
    4.6360    1.8080   17.3940 C   0  0  0  0  0  0  0  0  0  0  0  0
    5.5040    0.8090   17.1170 N   0  0  0  0  0  0  0  0  0  0  0  0
    6.0360    0.1440   18.1600 C   0  0  0  0  0  0  0  0  0  0  0  0
    8.2560   -0.4620   21.9020 N   0  0  0  0  0  0  0  0  0  0  0  0
    9.5620   -0.1150   22.2900 C   0  0  0  0  0  0  0  0  0  0  0  0
   10.6710   -0.8690   21.8760 C   0  0  0  0  0  0  0  0  0  0  0  0
   11.9690   -0.4250   22.1790 C   0  0  0  0  0  0  0  0  0  0  0  0
   12.1510    0.7730   22.8910 C   0  0  0  0  0  0  0  0  0  0  0  0
   11.0360    1.5300   23.2990 C   0  0  0  0  0  0  0  0  0  0  0  0
   11.2060    2.8490   24.0260 C   0  0  0  0  0  0  0  0  0  0  0  0
   10.9910    4.0580   23.0980 C   0  0  0  0  0  0  0  0  0  0  0  0
   11.2270    5.3890   23.8250 N   0  0  0  0  0  0  0  0  0  0  0  0
   10.2380    6.0590   24.1020 O   0  0  0  0  0  0  0  0  0  0  0  0
   12.3700    5.6400   24.1910 O   0  0  0  0  0  0  0  0  0  0  0  0
    9.7450    1.0750   23.0010 C   0  0  0  0  0  0  0  0  0  0  0  0
  1  2  2  0
  2 10  1  0
  2  3  1  0
  3  4  1  0
  4  5  2  0
  4  9  1  0
  5  6  1  0
  6  7  2  0
  7  8  1  0
  8  9  2  0
 10 11  1  0
 11 12  2  0
 11 21  1  0
 12 13  1  0
 13 14  2  0
 14 15  1  0
 15 16  1  0
 15 21  2  0
 16 17  1  0
 17 18  1  0
 18 19  1  0
 18 20  2  0
M  CHG  2  18   1  19  -1
M  END
>  <original SMILES>  (904) 
O=C(Nc1cccnc1)Nc1cccc(CC[N+](=O)[O-])c1

>  <AutoDock Predicted Affinity>  (904) 
-5.651375

>  <ref_pdb>  (904) 
x0434_0

>  <ref_mols>  (904) 
x0434_0

>  <creator>  (904) 
Will Poole

>  <energy minimised>  (904) 
True

$$$$
WPC1220_minimised.pdb
     RDKit          3D

 24 26  0  0  0  0  0  0  0  0999 V2000
    8.5620    0.3320   19.8690 O   0  0  0  0  0  0  0  0  0  0  0  0
    7.8520   -0.1050   20.7520 C   0  0  0  0  0  0  0  0  0  0  0  0
    6.5040   -0.2660   20.6030 N   0  0  0  0  0  0  0  0  0  0  0  0
    5.7790    0.2920   19.5280 C   0  0  0  0  0  0  0  0  0  0  0  0
    4.7960    1.2520   19.7980 C   0  0  0  0  0  0  0  0  0  0  0  0
    4.2170    1.9120   18.7080 C   0  0  0  0  0  0  0  0  0  0  0  0
    4.6430    1.6050   17.4080 C   0  0  0  0  0  0  0  0  0  0  0  0
    5.5660    0.6540   17.1370 N   0  0  0  0  0  0  0  0  0  0  0  0
    6.1330    0.0290   18.1880 C   0  0  0  0  0  0  0  0  0  0  0  0
    8.2870   -0.4110   22.0080 N   0  0  0  0  0  0  0  0  0  0  0  0
    9.5180    0.0240   22.5310 C   0  0  0  0  0  0  0  0  0  0  0  0
   10.7340   -0.4260   21.9950 C   0  0  0  0  0  0  0  0  0  0  0  0
   11.9440    0.1060   22.4700 C   0  0  0  0  0  0  0  0  0  0  0  0
   11.9290    1.0850   23.4770 C   0  0  0  0  0  0  0  0  0  0  0  0
   10.7070    1.5340   24.0150 C   0  0  0  0  0  0  0  0  0  0  0  0
   10.6790    2.5920   25.1040 C   0  0  0  0  0  0  0  0  0  0  0  0
   10.5370    4.0460   24.6070 C   0  0  0  0  0  0  0  0  0  0  0  0
   11.5890    4.3740   23.5710 C   0  0  0  0  0  0  0  0  0  0  0  0
   11.2800    4.1650   22.2260 C   0  0  0  0  0  0  0  0  0  0  0  0
   12.2320    4.4120   21.2340 C   0  0  0  0  0  0  0  0  0  0  0  0
   13.5410    4.7610   21.5830 C   0  0  0  0  0  0  0  0  0  0  0  0
   13.8670    4.9220   22.9320 C   0  0  0  0  0  0  0  0  0  0  0  0
   12.8790    4.7960   23.9240 C   0  0  0  0  0  0  0  0  0  0  0  0
    9.5050    0.9930   23.5410 C   0  0  0  0  0  0  0  0  0  0  0  0
  1  2  2  0
  2  3  1  0
  2 10  1  0
  3  4  1  0
  4  5  2  0
  4  9  1  0
  5  6  1  0
  6  7  2  0
  7  8  1  0
  8  9  2  0
 10 11  1  0
 11 24  1  0
 11 12  2  0
 12 13  1  0
 13 14  2  0
 14 15  1  0
 15 16  1  0
 15 24  2  0
 16 17  1  0
 17 18  1  0
 18 19  2  0
 18 23  1  0
 19 20  1  0
 20 21  2  0
 21 22  1  0
 22 23  2  0
M  END
>  <original SMILES>  (905) 
O=C(Nc1cccnc1)Nc1cccc(CCc2ccccc2)c1

>  <AutoDock Predicted Affinity>  (905) 
-5.817595

>  <ref_pdb>  (905) 
x0434_0

>  <ref_mols>  (905) 
x0434_0

>  <creator>  (905) 
Will Poole

>  <energy minimised>  (905) 
True

$$$$
WPC1896_minimised.pdb
     RDKit          3D

 24 26  0  0  0  0  0  0  0  0999 V2000
    8.5370    0.3450   19.8240 O   0  0  0  0  0  0  0  0  0  0  0  0
    7.8120   -0.0480   20.7160 C   0  0  0  0  0  0  0  0  0  0  0  0
    6.4590   -0.1590   20.5700 N   0  0  0  0  0  0  0  0  0  0  0  0
    5.7540    0.4080   19.4870 C   0  0  0  0  0  0  0  0  0  0  0  0
    4.7880    1.3880   19.7430 C   0  0  0  0  0  0  0  0  0  0  0  0
    4.2330    2.0540   18.6440 C   0  0  0  0  0  0  0  0  0  0  0  0
    4.6680    1.7350   17.3500 C   0  0  0  0  0  0  0  0  0  0  0  0
    5.5740    0.7650   17.0930 N   0  0  0  0  0  0  0  0  0  0  0  0
    6.1160    0.1320   18.1520 C   0  0  0  0  0  0  0  0  0  0  0  0
    8.2380   -0.3470   21.9770 N   0  0  0  0  0  0  0  0  0  0  0  0
    9.4860    0.0480   22.4910 C   0  0  0  0  0  0  0  0  0  0  0  0
   10.6860   -0.4230   21.9360 C   0  0  0  0  0  0  0  0  0  0  0  0
   11.9140    0.0650   22.4120 C   0  0  0  0  0  0  0  0  0  0  0  0
   11.9340    1.0240   23.4380 C   0  0  0  0  0  0  0  0  0  0  0  0
   10.7290    1.4920   23.9950 C   0  0  0  0  0  0  0  0  0  0  0  0
   10.7400    2.5050   25.1240 C   0  0  0  0  0  0  0  0  0  0  0  0
   10.6830    3.9810   24.6810 C   0  0  0  0  0  0  0  0  0  0  0  0
   11.7510    4.3120   23.6620 C   0  0  0  0  0  0  0  0  0  0  0  0
   11.4310    4.2740   22.3080 C   0  0  0  0  0  0  0  0  0  0  0  0
   12.4070    4.5770   21.3570 C   0  0  0  0  0  0  0  0  0  0  0  0
   13.7050    4.8300   21.8080 C   0  0  0  0  0  0  0  0  0  0  0  0
   13.9580    4.7720   23.1830 C   0  0  0  0  0  0  0  0  0  0  0  0
   12.9960    4.5630   24.1050 N   0  0  0  0  0  0  0  0  0  0  0  0
    9.5080    0.9960   23.5200 C   0  0  0  0  0  0  0  0  0  0  0  0
  1  2  2  0
  2  3  1  0
  2 10  1  0
  3  4  1  0
  4  5  2  0
  4  9  1  0
  5  6  1  0
  6  7  2  0
  7  8  1  0
  8  9  2  0
 10 11  1  0
 11 24  1  0
 11 12  2  0
 12 13  1  0
 13 14  2  0
 14 15  1  0
 15 16  1  0
 15 24  2  0
 16 17  1  0
 17 18  1  0
 18 19  2  0
 18 23  1  0
 19 20  1  0
 20 21  2  0
 21 22  1  0
 22 23  2  0
M  END
>  <original SMILES>  (906) 
O=C(Nc1cccnc1)Nc1cccc(CCc2ccccn2)c1

>  <AutoDock Predicted Affinity>  (906) 
-5.8172

>  <ref_pdb>  (906) 
x0434_0

>  <ref_mols>  (906) 
x0434_0

>  <creator>  (906) 
Will Poole

>  <energy minimised>  (906) 
True

$$$$
WPC1186_minimised.pdb
     RDKit          3D

 24 26  0  0  0  0  0  0  0  0999 V2000
    8.5470    0.0190   19.7120 O   0  0  0  0  0  0  0  0  0  0  0  0
    7.8290   -0.3170   20.6320 C   0  0  0  0  0  0  0  0  0  0  0  0
    6.4640   -0.3090   20.5440 N   0  0  0  0  0  0  0  0  0  0  0  0
    5.7580    0.3240   19.4960 C   0  0  0  0  0  0  0  0  0  0  0  0
    4.8200    1.3160   19.8060 C   0  0  0  0  0  0  0  0  0  0  0  0
    4.2620    2.0380   18.7430 C   0  0  0  0  0  0  0  0  0  0  0  0
    4.6710    1.7640   17.4300 C   0  0  0  0  0  0  0  0  0  0  0  0
    5.5460    0.7800   17.1210 N   0  0  0  0  0  0  0  0  0  0  0  0
    6.0830    0.0870   18.1440 C   0  0  0  0  0  0  0  0  0  0  0  0
    8.2840   -0.6560   21.8740 N   0  0  0  0  0  0  0  0  0  0  0  0
    9.5730   -0.3310   22.3330 C   0  0  0  0  0  0  0  0  0  0  0  0
   10.7170   -0.9100   21.7660 C   0  0  0  0  0  0  0  0  0  0  0  0
   11.9930   -0.4700   22.1530 C   0  0  0  0  0  0  0  0  0  0  0  0
   12.1180    0.5460   23.1150 C   0  0  0  0  0  0  0  0  0  0  0  0
   10.9680    1.1150   23.6950 C   0  0  0  0  0  0  0  0  0  0  0  0
   11.0750    2.1680   24.7800 C   0  0  0  0  0  0  0  0  0  0  0  0
   10.5670    3.5750   24.3890 C   0  0  0  0  0  0  0  0  0  0  0  0
   11.6760    4.4730   23.8680 C   0  0  0  0  0  0  0  0  0  0  0  0
   12.3690    4.1360   22.6970 C   0  0  0  0  0  0  0  0  0  0  0  0
   13.3950    4.9840   22.2630 C   0  0  0  0  0  0  0  0  0  0  0  0
   13.6820    6.1350   23.0030 C   0  0  0  0  0  0  0  0  0  0  0  0
   13.0090    6.4790   24.1190 N   0  0  0  0  0  0  0  0  0  0  0  0
   12.0300    5.6590   24.5400 C   0  0  0  0  0  0  0  0  0  0  0  0
    9.7000    0.6670   23.3040 C   0  0  0  0  0  0  0  0  0  0  0  0
  1  2  2  0
  2  3  1  0
  2 10  1  0
  3  4  1  0
  4  5  2  0
  4  9  1  0
  5  6  1  0
  6  7  2  0
  7  8  1  0
  8  9  2  0
 10 11  1  0
 11 24  1  0
 11 12  2  0
 12 13  1  0
 13 14  2  0
 14 15  1  0
 15 16  1  0
 15 24  2  0
 16 17  1  0
 17 18  1  0
 18 19  2  0
 18 23  1  0
 19 20  1  0
 20 21  2  0
 21 22  1  0
 22 23  2  0
M  END
>  <original SMILES>  (907) 
O=C(Nc1cccnc1)Nc1cccc(CCc2cccnc2)c1

>  <AutoDock Predicted Affinity>  (907) 
-6.107175

>  <ref_pdb>  (907) 
x0434_0

>  <ref_mols>  (907) 
x0434_0

>  <creator>  (907) 
Will Poole

>  <energy minimised>  (907) 
True

$$$$
WPC2571_minimised.pdb
     RDKit          3D

 24 26  0  0  0  0  0  0  0  0999 V2000
    8.5380    0.2800   19.8500 O   0  0  0  0  0  0  0  0  0  0  0  0
    7.8450   -0.1610   20.7460 C   0  0  0  0  0  0  0  0  0  0  0  0
    6.4850   -0.2530   20.6430 N   0  0  0  0  0  0  0  0  0  0  0  0
    5.7520    0.3120   19.5750 C   0  0  0  0  0  0  0  0  0  0  0  0
    4.7750    1.2760   19.8480 C   0  0  0  0  0  0  0  0  0  0  0  0
    4.1910    1.9350   18.7590 C   0  0  0  0  0  0  0  0  0  0  0  0
    4.6050    1.6200   17.4560 C   0  0  0  0  0  0  0  0  0  0  0  0
    5.5170    0.6610   17.1820 N   0  0  0  0  0  0  0  0  0  0  0  0
    6.0890    0.0390   18.2320 C   0  0  0  0  0  0  0  0  0  0  0  0
    8.3290   -0.5530   21.9610 N   0  0  0  0  0  0  0  0  0  0  0  0
    9.6420   -0.2840   22.3870 C   0  0  0  0  0  0  0  0  0  0  0  0
   10.7400   -0.8460   21.7210 C   0  0  0  0  0  0  0  0  0  0  0  0
   12.0440   -0.4510   22.0540 C   0  0  0  0  0  0  0  0  0  0  0  0
   12.2440    0.5030   23.0630 C   0  0  0  0  0  0  0  0  0  0  0  0
   11.1420    1.0380   23.7570 C   0  0  0  0  0  0  0  0  0  0  0  0
   11.3520    2.0200   24.8900 C   0  0  0  0  0  0  0  0  0  0  0  0
   10.9690    3.4820   24.5710 C   0  0  0  0  0  0  0  0  0  0  0  0
   11.8260    4.0650   23.4640 C   0  0  0  0  0  0  0  0  0  0  0  0
   12.9980    4.8050   23.6970 C   0  0  0  0  0  0  0  0  0  0  0  0
   13.7490    5.2580   22.5970 C   0  0  0  0  0  0  0  0  0  0  0  0
   13.3660    5.0870   21.3280 N   0  0  0  0  0  0  0  0  0  0  0  0
   12.2310    4.4070   21.1150 C   0  0  0  0  0  0  0  0  0  0  0  0
   11.4530    3.8590   22.1360 C   0  0  0  0  0  0  0  0  0  0  0  0
    9.8430    0.6410   23.4160 C   0  0  0  0  0  0  0  0  0  0  0  0
  1  2  2  0
  2  3  1  0
  2 10  1  0
  3  4  1  0
  4  5  2  0
  4  9  1  0
  5  6  1  0
  6  7  2  0
  7  8  1  0
  8  9  2  0
 10 11  1  0
 11 24  1  0
 11 12  2  0
 12 13  1  0
 13 14  2  0
 14 15  1  0
 15 16  1  0
 15 24  2  0
 16 17  1  0
 17 18  1  0
 18 19  2  0
 18 23  1  0
 19 20  1  0
 20 21  2  0
 21 22  1  0
 22 23  2  0
M  END
>  <original SMILES>  (908) 
O=C(Nc1cccnc1)Nc1cccc(CCc2ccncc2)c1

>  <AutoDock Predicted Affinity>  (908) 
-5.70323

>  <ref_pdb>  (908) 
x0434_0

>  <ref_mols>  (908) 
x0434_0

>  <creator>  (908) 
Will Poole

>  <energy minimised>  (908) 
True

$$$$
WPC1513_minimised.pdb
     RDKit          3D

 23 25  0  0  0  0  0  0  0  0999 V2000
    8.5950    0.2410   19.7730 O   0  0  0  0  0  0  0  0  0  0  0  0
    7.9080   -0.1610   20.6900 C   0  0  0  0  0  0  0  0  0  0  0  0
    6.5500   -0.2690   20.5910 N   0  0  0  0  0  0  0  0  0  0  0  0
    5.8130    0.3220   19.5390 C   0  0  0  0  0  0  0  0  0  0  0  0
    4.8700    1.3130   19.8360 C   0  0  0  0  0  0  0  0  0  0  0  0
    4.2950    2.0060   18.7630 C   0  0  0  0  0  0  0  0  0  0  0  0
    4.6870    1.7000   17.4520 C   0  0  0  0  0  0  0  0  0  0  0  0
    5.5700    0.7200   17.1570 N   0  0  0  0  0  0  0  0  0  0  0  0
    6.1290    0.0590   18.1900 C   0  0  0  0  0  0  0  0  0  0  0  0
    8.3920   -0.4580   21.9300 N   0  0  0  0  0  0  0  0  0  0  0  0
    9.6220    0.0290   22.4060 C   0  0  0  0  0  0  0  0  0  0  0  0
   10.8450   -0.4960   21.9620 C   0  0  0  0  0  0  0  0  0  0  0  0
   12.0500    0.0870   22.3890 C   0  0  0  0  0  0  0  0  0  0  0  0
   12.0270    1.1970   23.2520 C   0  0  0  0  0  0  0  0  0  0  0  0
   10.7980    1.7210   23.6950 C   0  0  0  0  0  0  0  0  0  0  0  0
   10.7380    2.8990   24.6490 C   0  0  0  0  0  0  0  0  0  0  0  0
   10.6520    4.2740   23.9530 C   0  0  0  0  0  0  0  0  0  0  0  0
   11.9460    4.6270   23.2820 C   0  0  0  0  0  0  0  0  0  0  0  0
   12.1060    4.7790   21.9340 N   0  0  0  0  0  0  0  0  0  0  0  0
   13.4450    5.0090   21.7060 C   0  0  0  0  0  0  0  0  0  0  0  0
   14.0380    4.9340   22.9350 C   0  0  0  0  0  0  0  0  0  0  0  0
   13.0940    4.7440   23.9130 N   0  0  0  0  0  0  0  0  0  0  0  0
    9.6010    1.1280   23.2710 C   0  0  0  0  0  0  0  0  0  0  0  0
  1  2  2  0
  2  3  1  0
  2 10  1  0
  3  4  1  0
  4  5  2  0
  4  9  1  0
  5  6  1  0
  6  7  2  0
  7  8  1  0
  8  9  2  0
 10 11  1  0
 11 23  1  0
 11 12  2  0
 12 13  1  0
 13 14  2  0
 14 15  1  0
 15 16  1  0
 15 23  2  0
 16 17  1  0
 17 18  1  0
 18 19  1  0
 18 22  2  0
 19 20  1  0
 20 21  2  0
 21 22  1  0
M  END
>  <original SMILES>  (909) 
O=C(Nc1cccnc1)Nc1cccc(CCc2ncc[nH]2)c1

>  <AutoDock Predicted Affinity>  (909) 
-6.08135

>  <ref_pdb>  (909) 
x0434_0

>  <ref_mols>  (909) 
x0434_0

>  <creator>  (909) 
Will Poole

>  <energy minimised>  (909) 
True

$$$$
WPC1551_minimised.pdb
     RDKit          3D

 23 25  0  0  0  0  0  0  0  0999 V2000
    8.6850    0.3020   19.9690 O   0  0  0  0  0  0  0  0  0  0  0  0
    7.9800   -0.0640   20.8860 C   0  0  0  0  0  0  0  0  0  0  0  0
    6.6260   -0.2050   20.7600 N   0  0  0  0  0  0  0  0  0  0  0  0
    5.8980    0.3210   19.6670 C   0  0  0  0  0  0  0  0  0  0  0  0
    4.9280    1.3000   19.9090 C   0  0  0  0  0  0  0  0  0  0  0  0
    4.3460    1.9290   18.8010 C   0  0  0  0  0  0  0  0  0  0  0  0
    4.7570    1.5720   17.5080 C   0  0  0  0  0  0  0  0  0  0  0  0
    5.6610    0.5970   17.2650 N   0  0  0  0  0  0  0  0  0  0  0  0
    6.2330    0.0030   18.3320 C   0  0  0  0  0  0  0  0  0  0  0  0
    8.4380   -0.2910   22.1520 N   0  0  0  0  0  0  0  0  0  0  0  0
    9.6720    0.2010   22.6150 C   0  0  0  0  0  0  0  0  0  0  0  0
   10.8840   -0.3940   22.2340 C   0  0  0  0  0  0  0  0  0  0  0  0
   12.1000    0.1900   22.6280 C   0  0  0  0  0  0  0  0  0  0  0  0
   12.0980    1.3700   23.3930 C   0  0  0  0  0  0  0  0  0  0  0  0
   10.8810    1.9680   23.7700 C   0  0  0  0  0  0  0  0  0  0  0  0
   10.8460    3.2550   24.5760 C   0  0  0  0  0  0  0  0  0  0  0  0
   10.6880    4.5250   23.7180 C   0  0  0  0  0  0  0  0  0  0  0  0
   11.9090    4.8350   22.9750 N   0  0  0  0  0  0  0  0  0  0  0  0
   12.9180    5.7020   23.3820 C   0  0  0  0  0  0  0  0  0  0  0  0
   13.8590    5.6820   22.3870 C   0  0  0  0  0  0  0  0  0  0  0  0
   13.4590    4.7650   21.4040 C   0  0  0  0  0  0  0  0  0  0  0  0
   12.2500    4.2470   21.7680 C   0  0  0  0  0  0  0  0  0  0  0  0
    9.6730    1.3730   23.3810 C   0  0  0  0  0  0  0  0  0  0  0  0
  1  2  2  0
  2  3  1  0
  2 10  1  0
  3  4  1  0
  4  5  2  0
  4  9  1  0
  5  6  1  0
  6  7  2  0
  7  8  1  0
  8  9  2  0
 10 11  1  0
 11 23  1  0
 11 12  2  0
 12 13  1  0
 13 14  2  0
 14 15  1  0
 15 16  1  0
 15 23  2  0
 16 17  1  0
 17 18  1  0
 18 19  1  0
 18 22  1  0
 19 20  2  0
 20 21  1  0
 21 22  2  0
M  END
>  <original SMILES>  (910) 
O=C(Nc1cccnc1)Nc1cccc(CCn2cccc2)c1

>  <AutoDock Predicted Affinity>  (910) 
-5.588465

>  <ref_pdb>  (910) 
x0434_0

>  <ref_mols>  (910) 
x0434_0

>  <creator>  (910) 
Will Poole

>  <energy minimised>  (910) 
True

$$$$
WPC1796_minimised.pdb
     RDKit          3D

 23 25  0  0  0  0  0  0  0  0999 V2000
    8.7100    0.3150   19.9590 O   0  0  0  0  0  0  0  0  0  0  0  0
    8.0200   -0.0930   20.8700 C   0  0  0  0  0  0  0  0  0  0  0  0
    6.6670   -0.2530   20.7500 N   0  0  0  0  0  0  0  0  0  0  0  0
    5.9260    0.2810   19.6700 C   0  0  0  0  0  0  0  0  0  0  0  0
    4.9520    1.2530   19.9300 C   0  0  0  0  0  0  0  0  0  0  0  0
    4.3590    1.8900   18.8320 C   0  0  0  0  0  0  0  0  0  0  0  0
    4.7630    1.5490   17.5330 C   0  0  0  0  0  0  0  0  0  0  0  0
    5.6720    0.5840   17.2730 N   0  0  0  0  0  0  0  0  0  0  0  0
    6.2550   -0.0180   18.3310 C   0  0  0  0  0  0  0  0  0  0  0  0
    8.4970   -0.3500   22.1230 N   0  0  0  0  0  0  0  0  0  0  0  0
    9.7250    0.1580   22.5870 C   0  0  0  0  0  0  0  0  0  0  0  0
   10.9460   -0.4170   22.2050 C   0  0  0  0  0  0  0  0  0  0  0  0
   12.1520    0.1860   22.6010 C   0  0  0  0  0  0  0  0  0  0  0  0
   12.1320    1.3640   23.3680 C   0  0  0  0  0  0  0  0  0  0  0  0
   10.9050    1.9400   23.7460 C   0  0  0  0  0  0  0  0  0  0  0  0
   10.8440    3.2170   24.5650 C   0  0  0  0  0  0  0  0  0  0  0  0
   10.6690    4.4890   23.7180 C   0  0  0  0  0  0  0  0  0  0  0  0
   11.8890    4.8290   22.9870 N   0  0  0  0  0  0  0  0  0  0  0  0
   12.9310    5.6220   23.4130 C   0  0  0  0  0  0  0  0  0  0  0  0
   13.8290    5.6440   22.3760 C   0  0  0  0  0  0  0  0  0  0  0  0
   13.3790    4.8780   21.3400 N   0  0  0  0  0  0  0  0  0  0  0  0
   12.2300    4.3680   21.7370 C   0  0  0  0  0  0  0  0  0  0  0  0
    9.7070    1.3270   23.3560 C   0  0  0  0  0  0  0  0  0  0  0  0
  1  2  2  0
  2  3  1  0
  2 10  1  0
  3  4  1  0
  4  5  2  0
  4  9  1  0
  5  6  1  0
  6  7  2  0
  7  8  1  0
  8  9  2  0
 10 11  1  0
 11 23  1  0
 11 12  2  0
 12 13  1  0
 13 14  2  0
 14 15  1  0
 15 16  1  0
 15 23  2  0
 16 17  1  0
 17 18  1  0
 18 19  1  0
 18 22  1  0
 19 20  2  0
 20 21  1  0
 21 22  2  0
M  END
>  <original SMILES>  (911) 
O=C(Nc1cccnc1)Nc1cccc(CCn2ccnc2)c1

>  <AutoDock Predicted Affinity>  (911) 
-5.46127

>  <ref_pdb>  (911) 
x0434_0

>  <ref_mols>  (911) 
x0434_0

>  <creator>  (911) 
Will Poole

>  <energy minimised>  (911) 
True

$$$$
WPC2375_minimised.pdb
     RDKit          3D

 23 25  0  0  0  0  0  0  0  0999 V2000
    8.4320   -0.1070   19.6610 O   0  0  0  0  0  0  0  0  0  0  0  0
    7.6830   -0.3340   20.5900 C   0  0  0  0  0  0  0  0  0  0  0  0
    6.3230   -0.2420   20.4890 N   0  0  0  0  0  0  0  0  0  0  0  0
    5.6560    0.3990   19.4210 C   0  0  0  0  0  0  0  0  0  0  0  0
    4.7270    1.4070   19.7080 C   0  0  0  0  0  0  0  0  0  0  0  0
    4.1980    2.1280   18.6300 C   0  0  0  0  0  0  0  0  0  0  0  0
    4.6220    1.8350   17.3260 C   0  0  0  0  0  0  0  0  0  0  0  0
    5.4920    0.8400   17.0410 N   0  0  0  0  0  0  0  0  0  0  0  0
    6.0020    0.1480   18.0770 C   0  0  0  0  0  0  0  0  0  0  0  0
    8.0980   -0.6220   21.8570 N   0  0  0  0  0  0  0  0  0  0  0  0
    9.3870   -0.3130   22.3250 C   0  0  0  0  0  0  0  0  0  0  0  0
   10.5270   -0.9360   21.7960 C   0  0  0  0  0  0  0  0  0  0  0  0
   11.8060   -0.5040   22.1840 C   0  0  0  0  0  0  0  0  0  0  0  0
   11.9360    0.5500   23.1040 C   0  0  0  0  0  0  0  0  0  0  0  0
   10.7900    1.1580   23.6470 C   0  0  0  0  0  0  0  0  0  0  0  0
   10.9030    2.2810   24.6570 C   0  0  0  0  0  0  0  0  0  0  0  0
   10.7620    3.6850   24.0340 C   0  0  0  0  0  0  0  0  0  0  0  0
   11.9230    4.1630   23.2690 N   0  0  0  0  0  0  0  0  0  0  0  0
   11.9280    5.1410   22.3140 C   0  0  0  0  0  0  0  0  0  0  0  0
   13.1600    5.3660   21.9090 N   0  0  0  0  0  0  0  0  0  0  0  0
   13.9030    4.4740   22.6370 C   0  0  0  0  0  0  0  0  0  0  0  0
   13.1940    3.7490   23.4840 N   0  0  0  0  0  0  0  0  0  0  0  0
    9.5180    0.7190   23.2580 C   0  0  0  0  0  0  0  0  0  0  0  0
  1  2  2  0
  2  3  1  0
  2 10  1  0
  3  4  1  0
  4  5  2  0
  4  9  1  0
  5  6  1  0
  6  7  2  0
  7  8  1  0
  8  9  2  0
 10 11  1  0
 11 23  1  0
 11 12  2  0
 12 13  1  0
 13 14  2  0
 14 15  1  0
 15 16  1  0
 15 23  2  0
 16 17  1  0
 17 18  1  0
 18 19  1  0
 18 22  1  0
 19 20  2  0
 20 21  1  0
 21 22  2  0
M  END
>  <original SMILES>  (912) 
O=C(Nc1cccnc1)Nc1cccc(CCn2cncn2)c1

>  <AutoDock Predicted Affinity>  (912) 
-5.94748

>  <ref_pdb>  (912) 
x0434_0

>  <ref_mols>  (912) 
x0434_0

>  <creator>  (912) 
Will Poole

>  <energy minimised>  (912) 
True

$$$$
WPC1767_minimised.pdb
     RDKit          3D

 24 25  0  0  0  0  0  0  0  0999 V2000
    8.5000    0.0580   19.7030 O   0  0  0  0  0  0  0  0  0  0  0  0
    7.7850   -0.2260   20.6430 C   0  0  0  0  0  0  0  0  0  0  0  0
    6.4210   -0.1700   20.5720 N   0  0  0  0  0  0  0  0  0  0  0  0
    5.7170    0.4350   19.5050 C   0  0  0  0  0  0  0  0  0  0  0  0
    4.7760    1.4330   19.7860 C   0  0  0  0  0  0  0  0  0  0  0  0
    4.2240    2.1270   18.7020 C   0  0  0  0  0  0  0  0  0  0  0  0
    4.6390    1.8210   17.3970 C   0  0  0  0  0  0  0  0  0  0  0  0
    5.5130    0.8280   17.1180 N   0  0  0  0  0  0  0  0  0  0  0  0
    6.0450    0.1620   18.1600 C   0  0  0  0  0  0  0  0  0  0  0  0
    8.2550   -0.5620   21.8800 N   0  0  0  0  0  0  0  0  0  0  0  0
    9.5960   -0.3710   22.2590 C   0  0  0  0  0  0  0  0  0  0  0  0
   10.6170   -1.1320   21.6750 C   0  0  0  0  0  0  0  0  0  0  0  0
   11.9600   -0.8220   21.9320 C   0  0  0  0  0  0  0  0  0  0  0  0
   12.2760    0.2460   22.7860 C   0  0  0  0  0  0  0  0  0  0  0  0
   11.2500    0.9960   23.3940 C   0  0  0  0  0  0  0  0  0  0  0  0
   11.5870    2.0990   24.3810 C   0  0  0  0  0  0  0  0  0  0  0  0
   11.5780    3.4860   23.8480 N   0  0  0  0  0  0  0  0  0  0  0  0
   12.5930    3.6840   22.7790 C   0  0  0  0  0  0  0  0  0  0  0  0
   13.3740    5.0140   22.8640 C   0  0  0  0  0  0  0  0  0  0  0  0
   14.1590    5.2250   21.6880 O   0  0  0  0  0  0  0  0  0  0  0  0
   10.2040    3.9040   23.4400 C   0  0  0  0  0  0  0  0  0  0  0  0
   10.0370    5.4300   23.3030 C   0  0  0  0  0  0  0  0  0  0  0  0
   10.6300    6.0130   24.4540 O   0  0  0  0  0  0  0  0  0  0  0  0
    9.9100    0.6750   23.1320 C   0  0  0  0  0  0  0  0  0  0  0  0
  1  2  2  0
  2 10  1  0
  2  3  1  0
  3  4  1  0
  4  5  2  0
  4  9  1  0
  5  6  1  0
  6  7  2  0
  7  8  1  0
  8  9  2  0
 10 11  1  0
 11 12  2  0
 11 24  1  0
 12 13  1  0
 13 14  2  0
 14 15  1  0
 15 16  1  0
 15 24  2  0
 16 17  1  0
 17 18  1  0
 17 21  1  0
 18 19  1  0
 19 20  1  0
 21 22  1  0
 22 23  1  0
M  END
>  <original SMILES>  (913) 
O=C(Nc1cccnc1)Nc1cccc(CN(CCO)CCO)c1

>  <AutoDock Predicted Affinity>  (913) 
-5.25669

>  <ref_pdb>  (913) 
x0434_0

>  <ref_mols>  (913) 
x0434_0

>  <creator>  (913) 
Will Poole

>  <energy minimised>  (913) 
True

$$$$
WPC2108_minimised.pdb
     RDKit          3D

 24 26  0  0  0  0  0  0  0  0999 V2000
    8.5100    0.0270   19.7320 O   0  0  0  0  0  0  0  0  0  0  0  0
    7.8140   -0.1910   20.7040 C   0  0  0  0  0  0  0  0  0  0  0  0
    6.4520   -0.0910   20.6610 N   0  0  0  0  0  0  0  0  0  0  0  0
    5.7390    0.4850   19.5830 C   0  0  0  0  0  0  0  0  0  0  0  0
    4.8130    1.5020   19.8440 C   0  0  0  0  0  0  0  0  0  0  0  0
    4.2500    2.1660   18.7470 C   0  0  0  0  0  0  0  0  0  0  0  0
    4.6390    1.8110   17.4470 C   0  0  0  0  0  0  0  0  0  0  0  0
    5.4950    0.7970   17.1860 N   0  0  0  0  0  0  0  0  0  0  0  0
    6.0370    0.1600   18.2420 C   0  0  0  0  0  0  0  0  0  0  0  0
    8.3080   -0.4980   21.9400 N   0  0  0  0  0  0  0  0  0  0  0  0
    9.6680   -0.3640   22.2770 C   0  0  0  0  0  0  0  0  0  0  0  0
   10.6390   -1.1530   21.6450 C   0  0  0  0  0  0  0  0  0  0  0  0
   12.0030   -0.8890   21.8440 C   0  0  0  0  0  0  0  0  0  0  0  0
   12.3920    0.1570   22.6960 C   0  0  0  0  0  0  0  0  0  0  0  0
   11.4180    0.9120   23.3720 C   0  0  0  0  0  0  0  0  0  0  0  0
   11.8280    2.0050   24.3320 C   0  0  0  0  0  0  0  0  0  0  0  0
   11.8300    3.3340   23.7160 N   0  0  0  0  0  0  0  0  0  0  0  0
   12.9650    3.9460   23.2430 C   0  0  0  0  0  0  0  0  0  0  0  0
   14.1080    3.5570   23.3260 O   0  0  0  0  0  0  0  0  0  0  0  0
   12.5000    5.1930   22.6670 C   0  0  0  0  0  0  0  0  0  0  0  0
   11.1440    5.2770   22.8470 C   0  0  0  0  0  0  0  0  0  0  0  0
   10.6860    4.0690   23.5180 C   0  0  0  0  0  0  0  0  0  0  0  0
    9.5570    3.7860   23.8600 O   0  0  0  0  0  0  0  0  0  0  0  0
   10.0560    0.6510   23.1570 C   0  0  0  0  0  0  0  0  0  0  0  0
  1  2  2  0
  2  3  1  0
  2 10  1  0
  3  4  1  0
  4  5  2  0
  4  9  1  0
  5  6  1  0
  6  7  2  0
  7  8  1  0
  8  9  2  0
 10 11  1  0
 11 24  1  0
 11 12  2  0
 12 13  1  0
 13 14  2  0
 14 15  1  0
 15 16  1  0
 15 24  2  0
 16 17  1  0
 17 18  1  0
 17 22  1  0
 18 19  2  0
 18 20  1  0
 20 21  2  0
 21 22  1  0
 22 23  2  0
M  END
>  <original SMILES>  (914) 
O=C(Nc1cccnc1)Nc1cccc(CN2C(=O)C=CC2=O)c1

>  <AutoDock Predicted Affinity>  (914) 
-6.248915

>  <ref_pdb>  (914) 
x0434_0

>  <ref_mols>  (914) 
x0434_0

>  <creator>  (914) 
Will Poole

>  <energy minimised>  (914) 
True

$$$$
WPC1399_minimised.pdb
     RDKit          3D

 24 26  0  0  1  0  0  0  0  0999 V2000
    8.5710    0.1820   19.8300 O   0  0  0  0  0  0  0  0  0  0  0  0
    7.9200   -0.0360   20.8320 C   0  0  0  0  0  0  0  0  0  0  0  0
    6.5540    0.0390   20.8300 N   0  0  0  0  0  0  0  0  0  0  0  0
    5.8010    0.5440   19.7390 C   0  0  0  0  0  0  0  0  0  0  0  0
    4.8590    1.5540   19.9680 C   0  0  0  0  0  0  0  0  0  0  0  0
    4.2620    2.1530   18.8510 C   0  0  0  0  0  0  0  0  0  0  0  0
    4.6350    1.7440   17.5610 C   0  0  0  0  0  0  0  0  0  0  0  0
    5.4990    0.7300   17.3310 N   0  0  0  0  0  0  0  0  0  0  0  0
    6.0750    0.1570   18.4070 C   0  0  0  0  0  0  0  0  0  0  0  0
    8.4880   -0.3360   22.0400 N   0  0  0  0  0  0  0  0  0  0  0  0
    9.8830   -0.3110   22.2520 C   0  0  0  0  0  0  0  0  0  0  0  0
   10.7080   -1.2190   21.5750 C   0  0  0  0  0  0  0  0  0  0  0  0
   12.1030   -1.0770   21.6230 C   0  0  0  0  0  0  0  0  0  0  0  0
   12.6730   -0.0330   22.3660 C   0  0  0  0  0  0  0  0  0  0  0  0
   11.8510    0.8510   23.0860 C   0  0  0  0  0  0  0  0  0  0  0  0
   12.4810    1.9050   23.9740 C   0  0  0  0  0  0  0  0  0  0  0  0
   12.3080    3.3030   23.5500 N   0  0  0  0  0  0  0  0  0  0  0  0
   13.3330    4.2110   23.3620 C   0  0  0  0  0  0  0  0  0  0  0  0
   14.5290    4.0380   23.4790 O   0  0  0  0  0  0  0  0  0  0  0  0
   12.7000    5.4860   23.0660 C   0  0  0  0  0  0  0  0  0  0  0  0
   11.3670    5.3230   23.0470 C   0  0  0  0  0  0  0  0  0  0  0  0
   10.9850    3.9050   23.3530 C   0  0  2  0  0  0  0  0  0  0  0  0
   10.2090    3.9090   24.5370 O   0  0  0  0  0  0  0  0  0  0  0  0
   10.4530    0.7010   23.0340 C   0  0  0  0  0  0  0  0  0  0  0  0
  1  2  2  0
  2  3  1  0
  2 10  1  0
  3  4  1  0
  4  5  2  0
  4  9  1  0
  5  6  1  0
  6  7  2  0
  7  8  1  0
  8  9  2  0
 10 11  1  0
 11 24  1  0
 11 12  2  0
 12 13  1  0
 13 14  2  0
 14 15  1  0
 15 16  1  0
 15 24  2  0
 16 17  1  0
 17 18  1  0
 17 22  1  0
 18 19  2  0
 18 20  1  0
 20 21  2  0
 21 22  1  0
 22 23  1  1
M  END
>  <original SMILES>  (915) 
O=C(Nc1cccnc1)Nc1cccc(CN2C(=O)C=CC2O)c1

>  <AutoDock Predicted Affinity>  (915) 
-6.6876

>  <ref_pdb>  (915) 
x0434_0

>  <ref_mols>  (915) 
x0434_0

>  <creator>  (915) 
Will Poole

>  <energy minimised>  (915) 
True

$$$$
WPC1523_minimised.pdb
     RDKit          3D

 24 26  0  0  0  0  0  0  0  0999 V2000
    8.4420   -0.1080   19.6240 O   0  0  0  0  0  0  0  0  0  0  0  0
    7.6780   -0.2460   20.5590 C   0  0  0  0  0  0  0  0  0  0  0  0
    6.3260   -0.0820   20.4530 N   0  0  0  0  0  0  0  0  0  0  0  0
    5.6810    0.5450   19.3640 C   0  0  0  0  0  0  0  0  0  0  0  0
    4.7360    1.5450   19.6230 C   0  0  0  0  0  0  0  0  0  0  0  0
    4.2230    2.2520   18.5290 C   0  0  0  0  0  0  0  0  0  0  0  0
    4.6890    1.9670   17.2390 C   0  0  0  0  0  0  0  0  0  0  0  0
    5.5670    0.9730   16.9780 N   0  0  0  0  0  0  0  0  0  0  0  0
    6.0530    0.2840   18.0280 C   0  0  0  0  0  0  0  0  0  0  0  0
    8.0740   -0.5060   21.8370 N   0  0  0  0  0  0  0  0  0  0  0  0
    9.3880   -0.2930   22.2850 C   0  0  0  0  0  0  0  0  0  0  0  0
   10.4600   -1.0340   21.7670 C   0  0  0  0  0  0  0  0  0  0  0  0
   11.7770   -0.7070   22.1270 C   0  0  0  0  0  0  0  0  0  0  0  0
   12.0120    0.3570   23.0130 C   0  0  0  0  0  0  0  0  0  0  0  0
   10.9330    1.0880   23.5450 C   0  0  0  0  0  0  0  0  0  0  0  0
   11.1690    2.2360   24.5030 C   0  0  0  0  0  0  0  0  0  0  0  0
   11.4700    3.4870   23.8090 N   0  0  0  0  0  0  0  0  0  0  0  0
   12.6780    3.7710   23.2500 C   0  0  0  0  0  0  0  0  0  0  0  0
   13.6930    3.1050   23.3140 O   0  0  0  0  0  0  0  0  0  0  0  0
   12.4460    5.0880   22.6680 C   0  0  0  0  0  0  0  0  0  0  0  0
   11.2340    5.5330   22.9390 N   0  0  0  0  0  0  0  0  0  0  0  0
   10.5880    4.5180   23.6190 C   0  0  0  0  0  0  0  0  0  0  0  0
    9.4520    4.5730   24.0330 O   0  0  0  0  0  0  0  0  0  0  0  0
    9.6220    0.7600   23.1760 C   0  0  0  0  0  0  0  0  0  0  0  0
  1  2  2  0
  2  3  1  0
  2 10  1  0
  3  4  1  0
  4  5  2  0
  4  9  1  0
  5  6  1  0
  6  7  2  0
  7  8  1  0
  8  9  2  0
 10 11  1  0
 11 24  1  0
 11 12  2  0
 12 13  1  0
 13 14  2  0
 14 15  1  0
 15 16  1  0
 15 24  2  0
 16 17  1  0
 17 18  1  0
 17 22  1  0
 18 19  2  0
 18 20  1  0
 20 21  2  0
 21 22  1  0
 22 23  2  0
M  END
>  <original SMILES>  (916) 
O=C(Nc1cccnc1)Nc1cccc(CN2C(=O)C=NC2=O)c1

>  <AutoDock Predicted Affinity>  (916) 
-6.18968

>  <ref_pdb>  (916) 
x0434_0

>  <ref_mols>  (916) 
x0434_0

>  <creator>  (916) 
Will Poole

>  <energy minimised>  (916) 
True

$$$$
WPC1634_minimised.pdb
     RDKit          3D

 24 26  0  0  0  0  0  0  0  0999 V2000
    8.7650    0.0460   19.8070 O   0  0  0  0  0  0  0  0  0  0  0  0
    8.1150   -0.3960   20.7300 C   0  0  0  0  0  0  0  0  0  0  0  0
    6.7520   -0.4870   20.6710 N   0  0  0  0  0  0  0  0  0  0  0  0
    5.9930    0.1490   19.6580 C   0  0  0  0  0  0  0  0  0  0  0  0
    5.1070    1.1780   20.0050 C   0  0  0  0  0  0  0  0  0  0  0  0
    4.5040    1.8990   18.9650 C   0  0  0  0  0  0  0  0  0  0  0  0
    4.8140    1.5860   17.6330 C   0  0  0  0  0  0  0  0  0  0  0  0
    5.6480    0.5780   17.2920 N   0  0  0  0  0  0  0  0  0  0  0  0
    6.2340   -0.1100   18.2920 C   0  0  0  0  0  0  0  0  0  0  0  0
    8.6470   -0.7520   21.9390 N   0  0  0  0  0  0  0  0  0  0  0  0
    9.8270   -0.1530   22.4260 C   0  0  0  0  0  0  0  0  0  0  0  0
   11.0960   -0.4800   21.9260 C   0  0  0  0  0  0  0  0  0  0  0  0
   12.2130    0.2840   22.3120 C   0  0  0  0  0  0  0  0  0  0  0  0
   12.0500    1.3940   23.1610 C   0  0  0  0  0  0  0  0  0  0  0  0
   10.7740    1.7210   23.6590 C   0  0  0  0  0  0  0  0  0  0  0  0
   10.5440    2.9380   24.5400 C   0  0  0  0  0  0  0  0  0  0  0  0
   10.0550    4.1320   23.8190 N   0  0  0  0  0  0  0  0  0  0  0  0
    8.8470    4.2080   23.1630 C   0  0  0  0  0  0  0  0  0  0  0  0
    7.9590    3.3730   23.1020 O   0  0  0  0  0  0  0  0  0  0  0  0
    8.8740    5.5710   22.6330 C   0  0  0  0  0  0  0  0  0  0  0  0
    9.9550    6.2220   23.0220 N   0  0  0  0  0  0  0  0  0  0  0  0
   10.7430    5.3260   23.7320 C   0  0  0  0  0  0  0  0  0  0  0  0
   12.2200    5.6950   24.4180 S   0  0  0  0  0  0  0  0  0  0  0  0
    9.6810    0.9110   23.3190 C   0  0  0  0  0  0  0  0  0  0  0  0
  1  2  2  0
  2  3  1  0
  2 10  1  0
  3  4  1  0
  4  5  2  0
  4  9  1  0
  5  6  1  0
  6  7  2  0
  7  8  1  0
  8  9  2  0
 10 11  1  0
 11 24  1  0
 11 12  2  0
 12 13  1  0
 13 14  2  0
 14 15  1  0
 15 16  1  0
 15 24  2  0
 16 17  1  0
 17 18  1  0
 17 22  1  0
 18 19  2  0
 18 20  1  0
 20 21  2  0
 21 22  1  0
 22 23  2  0
M  END
>  <original SMILES>  (917) 
O=C(Nc1cccnc1)Nc1cccc(CN2C(=O)C=NC2=S)c1

>  <AutoDock Predicted Affinity>  (917) 
-6.18337

>  <ref_pdb>  (917) 
x0434_0

>  <ref_mols>  (917) 
x0434_0

>  <creator>  (917) 
Will Poole

>  <energy minimised>  (917) 
True

$$$$
WPC2008_minimised.pdb
     RDKit          3D

 24 26  0  0  0  0  0  0  0  0999 V2000
    8.5190   -0.3820   19.5500 O   0  0  0  0  0  0  0  0  0  0  0  0
    7.9190   -0.3400   20.6050 C   0  0  0  0  0  0  0  0  0  0  0  0
    6.5720   -0.1130   20.6660 N   0  0  0  0  0  0  0  0  0  0  0  0
    5.8080    0.4330   19.6070 C   0  0  0  0  0  0  0  0  0  0  0  0
    4.9180    1.4760   19.8900 C   0  0  0  0  0  0  0  0  0  0  0  0
    4.2830    2.1050   18.8120 C   0  0  0  0  0  0  0  0  0  0  0  0
    4.5720    1.6920   17.5020 C   0  0  0  0  0  0  0  0  0  0  0  0
    5.3860    0.6510   17.2220 N   0  0  0  0  0  0  0  0  0  0  0  0
    5.9980    0.0470   18.2610 C   0  0  0  0  0  0  0  0  0  0  0  0
    8.5100   -0.4530   21.8310 N   0  0  0  0  0  0  0  0  0  0  0  0
    9.8960   -0.3160   22.0520 C   0  0  0  0  0  0  0  0  0  0  0  0
   10.8140   -1.2090   21.4890 C   0  0  0  0  0  0  0  0  0  0  0  0
   12.1920   -0.9840   21.6310 C   0  0  0  0  0  0  0  0  0  0  0  0
   12.6460    0.1230   22.3660 C   0  0  0  0  0  0  0  0  0  0  0  0
   11.7270    1.0000   22.9710 C   0  0  0  0  0  0  0  0  0  0  0  0
   12.2310    2.0760   23.9220 C   0  0  0  0  0  0  0  0  0  0  0  0
   11.9820    3.4970   23.6090 N   0  0  0  0  0  0  0  0  0  0  0  0
   13.0040    4.3930   23.3800 C   0  0  0  0  0  0  0  0  0  0  0  0
   14.1770    4.0760   23.2480 O   0  0  0  0  0  0  0  0  0  0  0  0
   12.6680    5.7140   23.4690 C   0  0  0  0  0  0  0  0  0  0  0  0
   10.9500    5.8530   23.8320 S   0  0  0  0  0  0  0  0  0  0  0  0
   10.7530    4.0670   23.8380 C   0  0  0  0  0  0  0  0  0  0  0  0
    9.7900    3.4880   24.3030 O   0  0  0  0  0  0  0  0  0  0  0  0
   10.3510    0.7680   22.8070 C   0  0  0  0  0  0  0  0  0  0  0  0
  1  2  2  0
  2  3  1  0
  2 10  1  0
  3  4  1  0
  4  5  2  0
  4  9  1  0
  5  6  1  0
  6  7  2  0
  7  8  1  0
  8  9  2  0
 10 11  1  0
 11 24  1  0
 11 12  2  0
 12 13  1  0
 13 14  2  0
 14 15  1  0
 15 16  1  0
 15 24  2  0
 16 17  1  0
 17 18  1  0
 17 22  1  0
 18 19  2  0
 18 20  1  0
 20 21  2  0
 21 22  1  0
 22 23  2  0
M  END
>  <original SMILES>  (918) 
O=C(Nc1cccnc1)Nc1cccc(CN2C(=O)C=[SH]C2=O)c1

>  <AutoDock Predicted Affinity>  (918) 
-6.57584

>  <ref_pdb>  (918) 
x0434_0

>  <ref_mols>  (918) 
x0434_0

>  <creator>  (918) 
Will Poole

>  <energy minimised>  (918) 
True

$$$$
WPC1241_minimised.pdb
     RDKit          3D

 24 26  0  0  0  0  0  0  0  0999 V2000
    8.4770   -0.2670   19.5150 O   0  0  0  0  0  0  0  0  0  0  0  0
    7.8930   -0.1050   20.5670 C   0  0  0  0  0  0  0  0  0  0  0  0
    6.5510    0.1420   20.6280 N   0  0  0  0  0  0  0  0  0  0  0  0
    5.7710    0.6270   19.5520 C   0  0  0  0  0  0  0  0  0  0  0  0
    4.8530    1.6530   19.8080 C   0  0  0  0  0  0  0  0  0  0  0  0
    4.1970    2.2310   18.7140 C   0  0  0  0  0  0  0  0  0  0  0  0
    4.4970    1.7910   17.4170 C   0  0  0  0  0  0  0  0  0  0  0  0
    5.3330    0.7600   17.1640 N   0  0  0  0  0  0  0  0  0  0  0  0
    5.9610    0.2010   18.2180 C   0  0  0  0  0  0  0  0  0  0  0  0
    8.5000   -0.0910   21.7900 N   0  0  0  0  0  0  0  0  0  0  0  0
    9.8930   -0.0190   21.9930 C   0  0  0  0  0  0  0  0  0  0  0  0
   10.7460   -1.0140   21.4970 C   0  0  0  0  0  0  0  0  0  0  0  0
   12.1340   -0.8940   21.6580 C   0  0  0  0  0  0  0  0  0  0  0  0
   12.6620    0.2030   22.3550 C   0  0  0  0  0  0  0  0  0  0  0  0
   11.8090    1.1890   22.8850 C   0  0  0  0  0  0  0  0  0  0  0  0
   12.3860    2.2480   23.8120 C   0  0  0  0  0  0  0  0  0  0  0  0
   12.1230    3.6730   23.5580 N   0  0  0  0  0  0  0  0  0  0  0  0
   10.9680    4.3260   23.9110 C   0  0  0  0  0  0  0  0  0  0  0  0
    9.9760    3.7830   24.3700 O   0  0  0  0  0  0  0  0  0  0  0  0
   11.2330    5.6540   23.8000 C   0  0  0  0  0  0  0  0  0  0  0  0
   12.5390    5.8080   23.4360 O   0  0  0  0  0  0  0  0  0  0  0  0
   13.1200    4.5810   23.2620 C   0  0  0  0  0  0  0  0  0  0  0  0
   14.3230    4.3620   23.2580 O   0  0  0  0  0  0  0  0  0  0  0  0
   10.4240    1.0750   22.6860 C   0  0  0  0  0  0  0  0  0  0  0  0
  1  2  2  0
  2  3  1  0
  2 10  1  0
  3  4  1  0
  4  5  2  0
  4  9  1  0
  5  6  1  0
  6  7  2  0
  7  8  1  0
  8  9  2  0
 10 11  1  0
 11 24  1  0
 11 12  2  0
 12 13  1  0
 13 14  2  0
 14 15  1  0
 15 16  1  0
 15 24  2  0
 16 17  1  0
 17 18  1  0
 17 22  1  0
 18 19  2  0
 18 20  1  0
 20 21  1  0
 21 22  1  0
 22 23  2  0
M  END
>  <original SMILES>  (919) 
O=C(Nc1cccnc1)Nc1cccc(CN2C(=O)COC2=O)c1

>  <AutoDock Predicted Affinity>  (919) 
-6.75235

>  <ref_pdb>  (919) 
x0434_0

>  <ref_mols>  (919) 
x0434_0

>  <creator>  (919) 
Will Poole

>  <energy minimised>  (919) 
True

$$$$
WPC2085_minimised.pdb
     RDKit          3D

 24 26  0  0  0  0  0  0  0  0999 V2000
    8.6500   -0.1340   19.6430 O   0  0  0  0  0  0  0  0  0  0  0  0
    7.9320   -0.4080   20.5830 C   0  0  0  0  0  0  0  0  0  0  0  0
    6.5680   -0.3540   20.5080 N   0  0  0  0  0  0  0  0  0  0  0  0
    5.8650    0.3040   19.4710 C   0  0  0  0  0  0  0  0  0  0  0  0
    4.9490    1.3130   19.7960 C   0  0  0  0  0  0  0  0  0  0  0  0
    4.3780    2.0420   18.7450 C   0  0  0  0  0  0  0  0  0  0  0  0
    4.7550    1.7620   17.4230 C   0  0  0  0  0  0  0  0  0  0  0  0
    5.6150    0.7700   17.1010 N   0  0  0  0  0  0  0  0  0  0  0  0
    6.1620    0.0680   18.1130 C   0  0  0  0  0  0  0  0  0  0  0  0
    8.3880   -0.7020   21.8350 N   0  0  0  0  0  0  0  0  0  0  0  0
    9.6010   -0.1790   22.3200 C   0  0  0  0  0  0  0  0  0  0  0  0
   10.8490   -0.6080   21.8460 C   0  0  0  0  0  0  0  0  0  0  0  0
   12.0160    0.0730   22.2360 C   0  0  0  0  0  0  0  0  0  0  0  0
   11.9250    1.1970   23.0770 C   0  0  0  0  0  0  0  0  0  0  0  0
   10.6700    1.6210   23.5540 C   0  0  0  0  0  0  0  0  0  0  0  0
   10.5300    2.8310   24.4570 C   0  0  0  0  0  0  0  0  0  0  0  0
   10.1290    4.0690   23.7700 N   0  0  0  0  0  0  0  0  0  0  0  0
   10.8800    5.1960   23.7120 C   0  0  0  0  0  0  0  0  0  0  0  0
   11.9980    5.3320   24.1750 O   0  0  0  0  0  0  0  0  0  0  0  0
   10.1060    6.1810   23.1100 N   0  0  0  0  0  0  0  0  0  0  0  0
    8.9440    5.6710   22.7970 N   0  0  0  0  0  0  0  0  0  0  0  0
    8.9230    4.3370   23.1910 C   0  0  0  0  0  0  0  0  0  0  0  0
    7.9690    3.5860   23.1270 O   0  0  0  0  0  0  0  0  0  0  0  0
    9.5200    0.9060   23.1950 C   0  0  0  0  0  0  0  0  0  0  0  0
  1  2  2  0
  2  3  1  0
  2 10  1  0
  3  4  1  0
  4  5  2  0
  4  9  1  0
  5  6  1  0
  6  7  2  0
  7  8  1  0
  8  9  2  0
 10 11  1  0
 11 24  1  0
 11 12  2  0
 12 13  1  0
 13 14  2  0
 14 15  1  0
 15 16  1  0
 15 24  2  0
 16 17  1  0
 17 18  1  0
 17 22  1  0
 18 19  2  0
 18 20  1  0
 20 21  2  0
 21 22  1  0
 22 23  2  0
M  END
>  <original SMILES>  (920) 
O=C(Nc1cccnc1)Nc1cccc(CN2C(=O)N=NC2=O)c1

>  <AutoDock Predicted Affinity>  (920) 
-6.251007

>  <ref_pdb>  (920) 
x0434_0

>  <ref_mols>  (920) 
x0434_0

>  <creator>  (920) 
Will Poole

>  <energy minimised>  (920) 
True

$$$$
WPC2406_minimised.pdb
     RDKit          3D

 24 26  0  0  0  0  0  0  0  0999 V2000
    8.6340    0.0390   19.7600 O   0  0  0  0  0  0  0  0  0  0  0  0
    7.8980   -0.3060   20.6610 C   0  0  0  0  0  0  0  0  0  0  0  0
    6.5390   -0.3480   20.5340 N   0  0  0  0  0  0  0  0  0  0  0  0
    5.8420    0.2910   19.4820 C   0  0  0  0  0  0  0  0  0  0  0  0
    4.9090    1.2880   19.7900 C   0  0  0  0  0  0  0  0  0  0  0  0
    4.3580    2.0160   18.7280 C   0  0  0  0  0  0  0  0  0  0  0  0
    4.7690    1.7430   17.4150 C   0  0  0  0  0  0  0  0  0  0  0  0
    5.6420    0.7570   17.1100 N   0  0  0  0  0  0  0  0  0  0  0  0
    6.1740    0.0590   18.1320 C   0  0  0  0  0  0  0  0  0  0  0  0
    8.3250   -0.5870   21.9250 N   0  0  0  0  0  0  0  0  0  0  0  0
    9.5130   -0.0490   22.4480 C   0  0  0  0  0  0  0  0  0  0  0  0
   10.7680   -0.6180   22.1860 C   0  0  0  0  0  0  0  0  0  0  0  0
   11.9270    0.0060   22.6790 C   0  0  0  0  0  0  0  0  0  0  0  0
   11.8270    1.1950   23.4230 C   0  0  0  0  0  0  0  0  0  0  0  0
   10.5680    1.7910   23.6410 C   0  0  0  0  0  0  0  0  0  0  0  0
   10.3980    3.1220   24.3660 C   0  0  0  0  0  0  0  0  0  0  0  0
   11.3260    4.1880   23.9860 N   0  0  0  0  0  0  0  0  0  0  0  0
   12.0890    4.2540   22.8420 C   0  0  0  0  0  0  0  0  0  0  0  0
   12.8730    5.3640   23.0080 C   0  0  0  0  0  0  0  0  0  0  0  0
   14.1980    5.9720   21.8210 Br  0  0  0  0  0  0  0  0  0  0  0  0
   12.4470    5.9610   24.1820 N   0  0  0  0  0  0  0  0  0  0  0  0
   12.8380    7.0510   24.6180 O   0  0  0  0  0  0  0  0  0  0  0  0
   11.4700    5.2570   24.8220 N   0  0  0  0  0  0  0  0  0  0  0  0
    9.4170    1.1500   23.1620 C   0  0  0  0  0  0  0  0  0  0  0  0
  1  2  2  0
  2 10  1  0
  2  3  1  0
  3  4  1  0
  4  5  2  0
  4  9  1  0
  5  6  1  0
  6  7  2  0
  7  8  1  0
  8  9  2  0
 10 11  1  0
 11 12  2  0
 11 24  1  0
 12 13  1  0
 13 14  2  0
 14 15  1  0
 15 16  1  0
 15 24  2  0
 16 17  1  0
 17 18  1  0
 17 23  1  0
 18 19  2  0
 19 21  1  0
 19 20  1  0
 21 22  1  0
 21 23  1  0
M  END
>  <original SMILES>  (921) 
O=C(Nc1cccnc1)Nc1cccc(CN2C=C(Br)N(O)N2)c1

>  <AutoDock Predicted Affinity>  (921) 
-6.61277

>  <ref_pdb>  (921) 
x0434_0

>  <ref_mols>  (921) 
x0434_0

>  <creator>  (921) 
Will Poole

>  <energy minimised>  (921) 
True

$$$$
WPC1604_minimised.pdb
     RDKit          3D

 24 26  0  0  0  0  0  0  0  0999 V2000
    8.6150    0.0530   19.7320 O   0  0  0  0  0  0  0  0  0  0  0  0
    7.8720   -0.2360   20.6470 C   0  0  0  0  0  0  0  0  0  0  0  0
    6.5110   -0.2520   20.5250 N   0  0  0  0  0  0  0  0  0  0  0  0
    5.8230    0.3650   19.4540 C   0  0  0  0  0  0  0  0  0  0  0  0
    4.8810    1.3610   19.7390 C   0  0  0  0  0  0  0  0  0  0  0  0
    4.3370    2.0720   18.6620 C   0  0  0  0  0  0  0  0  0  0  0  0
    4.7650    1.7880   17.3580 C   0  0  0  0  0  0  0  0  0  0  0  0
    5.6440    0.8010   17.0740 N   0  0  0  0  0  0  0  0  0  0  0  0
    6.1670    0.1160   18.1100 C   0  0  0  0  0  0  0  0  0  0  0  0
    8.2950   -0.4740   21.9210 N   0  0  0  0  0  0  0  0  0  0  0  0
    9.5050    0.0420   22.4190 C   0  0  0  0  0  0  0  0  0  0  0  0
   10.7430   -0.5490   22.1260 C   0  0  0  0  0  0  0  0  0  0  0  0
   11.9250    0.0480   22.5990 C   0  0  0  0  0  0  0  0  0  0  0  0
   11.8640    1.2320   23.3560 C   0  0  0  0  0  0  0  0  0  0  0  0
   10.6210    1.8500   23.6080 C   0  0  0  0  0  0  0  0  0  0  0  0
   10.4910    3.1670   24.3670 C   0  0  0  0  0  0  0  0  0  0  0  0
   11.4160    4.2370   23.9860 N   0  0  0  0  0  0  0  0  0  0  0  0
   12.1750    4.3170   22.8390 C   0  0  0  0  0  0  0  0  0  0  0  0
   12.9490    5.4350   23.0090 C   0  0  0  0  0  0  0  0  0  0  0  0
   14.1520    6.0230   21.9100 Cl  0  0  0  0  0  0  0  0  0  0  0  0
   12.5220    6.0200   24.1880 N   0  0  0  0  0  0  0  0  0  0  0  0
   12.8950    7.1170   24.6250 O   0  0  0  0  0  0  0  0  0  0  0  0
   11.5560    5.3020   24.8290 N   0  0  0  0  0  0  0  0  0  0  0  0
    9.4480    1.2350   23.1460 C   0  0  0  0  0  0  0  0  0  0  0  0
  1  2  2  0
  2 10  1  0
  2  3  1  0
  3  4  1  0
  4  5  2  0
  4  9  1  0
  5  6  1  0
  6  7  2  0
  7  8  1  0
  8  9  2  0
 10 11  1  0
 11 12  2  0
 11 24  1  0
 12 13  1  0
 13 14  2  0
 14 15  1  0
 15 16  1  0
 15 24  2  0
 16 17  1  0
 17 18  1  0
 17 23  1  0
 18 19  2  0
 19 21  1  0
 19 20  1  0
 21 22  1  0
 21 23  1  0
M  END
>  <original SMILES>  (922) 
O=C(Nc1cccnc1)Nc1cccc(CN2C=C(Cl)N(O)N2)c1

>  <AutoDock Predicted Affinity>  (922) 
-6.79075

>  <ref_pdb>  (922) 
x0434_0

>  <ref_mols>  (922) 
x0434_0

>  <creator>  (922) 
Will Poole

>  <energy minimised>  (922) 
True

$$$$
WPC1730_minimised.pdb
     RDKit          3D

 23 25  0  0  0  0  0  0  0  0999 V2000
    8.6890    0.1260   19.9050 O   0  0  0  0  0  0  0  0  0  0  0  0
    7.9830   -0.2130   20.8340 C   0  0  0  0  0  0  0  0  0  0  0  0
    6.6200   -0.2750   20.7320 N   0  0  0  0  0  0  0  0  0  0  0  0
    5.9020    0.3080   19.6590 C   0  0  0  0  0  0  0  0  0  0  0  0
    4.9540    1.3020   19.9350 C   0  0  0  0  0  0  0  0  0  0  0  0
    4.3910    1.9860   18.8490 C   0  0  0  0  0  0  0  0  0  0  0  0
    4.7980    1.6690   17.5440 C   0  0  0  0  0  0  0  0  0  0  0  0
    5.6790    0.6820   17.2690 N   0  0  0  0  0  0  0  0  0  0  0  0
    6.2280    0.0310   18.3140 C   0  0  0  0  0  0  0  0  0  0  0  0
    8.4560   -0.4690   22.0910 N   0  0  0  0  0  0  0  0  0  0  0  0
    9.6820    0.0540   22.5470 C   0  0  0  0  0  0  0  0  0  0  0  0
   10.9110   -0.3730   22.0190 C   0  0  0  0  0  0  0  0  0  0  0  0
   12.0910    0.3090   22.3640 C   0  0  0  0  0  0  0  0  0  0  0  0
   12.0320    1.4380   23.2000 C   0  0  0  0  0  0  0  0  0  0  0  0
   10.7980    1.8670   23.7240 C   0  0  0  0  0  0  0  0  0  0  0  0
   10.6990    3.1200   24.5820 C   0  0  0  0  0  0  0  0  0  0  0  0
   10.1310    4.2980   23.9000 N   0  0  0  0  0  0  0  0  0  0  0  0
    9.0070    4.1900   22.9720 C   0  0  0  0  0  0  0  0  0  0  0  0
    8.9360    5.6210   22.5380 C   0  0  0  0  0  0  0  0  0  0  0  0
    9.8000    6.3610   23.1530 N   0  0  0  0  0  0  0  0  0  0  0  0
   10.6230    5.5880   23.9710 C   0  0  0  0  0  0  0  0  0  0  0  0
   11.9470    6.1320   24.8260 S   0  0  0  0  0  0  0  0  0  0  0  0
    9.6340    1.1420   23.4240 C   0  0  0  0  0  0  0  0  0  0  0  0
  1  2  2  0
  2  3  1  0
  2 10  1  0
  3  4  1  0
  4  5  2  0
  4  9  1  0
  5  6  1  0
  6  7  2  0
  7  8  1  0
  8  9  2  0
 10 11  1  0
 11 23  1  0
 11 12  2  0
 12 13  1  0
 13 14  2  0
 14 15  1  0
 15 16  1  0
 15 23  2  0
 16 17  1  0
 17 18  1  0
 17 21  1  0
 18 19  1  0
 19 20  2  0
 20 21  1  0
 21 22  2  0
M  END
>  <original SMILES>  (923) 
O=C(Nc1cccnc1)Nc1cccc(CN2CC=NC2=S)c1

>  <AutoDock Predicted Affinity>  (923) 
-6.09283

>  <ref_pdb>  (923) 
x0434_0

>  <ref_mols>  (923) 
x0434_0

>  <creator>  (923) 
Will Poole

>  <energy minimised>  (923) 
True

$$$$
WPC2062_minimised.pdb
     RDKit          3D

 24 26  0  0  1  0  0  0  0  0999 V2000
    8.6430   -0.2030   19.7600 O   0  0  0  0  0  0  0  0  0  0  0  0
    7.9680   -0.3550   20.7580 C   0  0  0  0  0  0  0  0  0  0  0  0
    6.6090   -0.1960   20.7480 N   0  0  0  0  0  0  0  0  0  0  0  0
    5.8830    0.3800   19.6750 C   0  0  0  0  0  0  0  0  0  0  0  0
    4.9650    1.4020   19.9480 C   0  0  0  0  0  0  0  0  0  0  0  0
    4.3740    2.0550   18.8580 C   0  0  0  0  0  0  0  0  0  0  0  0
    4.7320    1.6910   17.5520 C   0  0  0  0  0  0  0  0  0  0  0  0
    5.5800    0.6740   17.2800 N   0  0  0  0  0  0  0  0  0  0  0  0
    6.1470    0.0440   18.3280 C   0  0  0  0  0  0  0  0  0  0  0  0
    8.4870   -0.6440   21.9900 N   0  0  0  0  0  0  0  0  0  0  0  0
    9.8580   -0.5230   22.2950 C   0  0  0  0  0  0  0  0  0  0  0  0
   10.8210   -1.2770   21.6140 C   0  0  0  0  0  0  0  0  0  0  0  0
   12.1880   -1.0040   21.7850 C   0  0  0  0  0  0  0  0  0  0  0  0
   12.5890    0.0180   22.6600 C   0  0  0  0  0  0  0  0  0  0  0  0
   11.6250    0.7310   23.3950 C   0  0  0  0  0  0  0  0  0  0  0  0
   12.0340    1.7840   24.4020 C   0  0  0  0  0  0  0  0  0  0  0  0
   11.9250    3.1570   23.9030 N   0  0  0  0  0  0  0  0  0  0  0  0
   13.1240    3.9510   23.6460 C   0  0  0  0  0  0  0  0  0  0  0  0
   12.5740    5.2710   23.0770 C   0  0  0  0  0  0  0  0  0  0  0  0
   11.1120    5.3410   23.5720 C   0  0  1  0  0  0  0  0  0  0  0  0
   10.2460    5.9880   22.6250 O   0  0  0  0  0  0  0  0  0  0  0  0
   10.7540    3.8740   23.8290 C   0  0  0  0  0  0  0  0  0  0  0  0
    9.6360    3.4320   24.0100 O   0  0  0  0  0  0  0  0  0  0  0  0
   10.2620    0.4510   23.2110 C   0  0  0  0  0  0  0  0  0  0  0  0
  1  2  2  0
  2  3  1  0
  2 10  1  0
  3  4  1  0
  4  5  2  0
  4  9  1  0
  5  6  1  0
  6  7  2  0
  7  8  1  0
  8  9  2  0
 10 11  1  0
 11 24  1  0
 11 12  2  0
 12 13  1  0
 13 14  2  0
 14 15  1  0
 15 16  1  0
 15 24  2  0
 16 17  1  0
 17 18  1  0
 17 22  1  0
 18 19  1  0
 19 20  1  0
 20 21  1  6
 20 22  1  0
 22 23  2  0
M  END
>  <original SMILES>  (924) 
O=C(Nc1cccnc1)Nc1cccc(CN2CCC(O)C2=O)c1

>  <AutoDock Predicted Affinity>  (924) 
-6.82322

>  <ref_pdb>  (924) 
x0434_0

>  <ref_mols>  (924) 
x0434_0

>  <creator>  (924) 
Will Poole

>  <energy minimised>  (924) 
True

$$$$
WPC1578_minimised.pdb
     RDKit          3D

 24 26  0  0  0  0  0  0  0  0999 V2000
    9.0500    0.9330   20.6320 O   0  0  0  0  0  0  0  0  0  0  0  0
    8.7500   -0.2390   20.7490 C   0  0  0  0  0  0  0  0  0  0  0  0
    7.5610   -0.7490   20.3080 N   0  0  0  0  0  0  0  0  0  0  0  0
    6.6300   -0.0470   19.5050 C   0  0  0  0  0  0  0  0  0  0  0  0
    5.9120    1.0390   20.0260 C   0  0  0  0  0  0  0  0  0  0  0  0
    5.0460    1.7270   19.1620 C   0  0  0  0  0  0  0  0  0  0  0  0
    4.9560    1.3380   17.8160 C   0  0  0  0  0  0  0  0  0  0  0  0
    5.6360    0.2820   17.3160 N   0  0  0  0  0  0  0  0  0  0  0  0
    6.4570   -0.3850   18.1510 C   0  0  0  0  0  0  0  0  0  0  0  0
    9.5780   -1.1820   21.2950 N   0  0  0  0  0  0  0  0  0  0  0  0
   10.8500   -0.8940   21.8210 C   0  0  0  0  0  0  0  0  0  0  0  0
   12.0230   -1.2790   21.1540 C   0  0  0  0  0  0  0  0  0  0  0  0
   13.2780   -0.8880   21.6410 C   0  0  0  0  0  0  0  0  0  0  0  0
   13.3550   -0.1060   22.8000 C   0  0  0  0  0  0  0  0  0  0  0  0
   12.1800    0.2530   23.4860 C   0  0  0  0  0  0  0  0  0  0  0  0
   12.2520    1.0650   24.7560 C   0  0  0  0  0  0  0  0  0  0  0  0
   12.1170    2.5120   24.5170 N   0  0  0  0  0  0  0  0  0  0  0  0
   13.0800    3.0780   23.5500 C   0  0  0  0  0  0  0  0  0  0  0  0
   12.9570    4.6030   23.5920 C   0  0  0  0  0  0  0  0  0  0  0  0
   11.5910    5.0000   23.0110 C   0  0  0  0  0  0  0  0  0  0  0  0
   11.8060    5.1740   21.6270 O   0  0  0  0  0  0  0  0  0  0  0  0
   10.4930    3.9210   23.2140 C   0  0  0  0  0  0  0  0  0  0  0  0
   10.7360    3.0500   24.4660 C   0  0  0  0  0  0  0  0  0  0  0  0
   10.9320   -0.1390   22.9910 C   0  0  0  0  0  0  0  0  0  0  0  0
  1  2  2  0
  2  3  1  0
  2 10  1  0
  3  4  1  0
  4  5  2  0
  4  9  1  0
  5  6  1  0
  6  7  2  0
  7  8  1  0
  8  9  2  0
 10 11  1  0
 11 24  1  0
 11 12  2  0
 12 13  1  0
 13 14  2  0
 14 15  1  0
 15 16  1  0
 15 24  2  0
 16 17  1  0
 17 18  1  0
 17 23  1  0
 18 19  1  0
 19 20  1  0
 20 21  1  0
 20 22  1  0
 22 23  1  0
M  END
>  <original SMILES>  (925) 
O=C(Nc1cccnc1)Nc1cccc(CN2CCC(O)CC2)c1

>  <AutoDock Predicted Affinity>  (925) 
-6.280805

>  <ref_pdb>  (925) 
x0434_0

>  <ref_mols>  (925) 
x0434_0

>  <creator>  (925) 
Will Poole

>  <energy minimised>  (925) 
True

$$$$
WPC1391_minimised.pdb
     RDKit          3D

 24 26  0  0  1  0  0  0  0  0999 V2000
    8.6420   -0.0070   19.7720 O   0  0  0  0  0  0  0  0  0  0  0  0
    7.9720   -0.1080   20.7810 C   0  0  0  0  0  0  0  0  0  0  0  0
    6.6090    0.0050   20.7670 N   0  0  0  0  0  0  0  0  0  0  0  0
    5.8670    0.5100   19.6710 C   0  0  0  0  0  0  0  0  0  0  0  0
    4.9140    1.5090   19.9060 C   0  0  0  0  0  0  0  0  0  0  0  0
    4.3180    2.1150   18.7930 C   0  0  0  0  0  0  0  0  0  0  0  0
    4.7050    1.7280   17.5020 C   0  0  0  0  0  0  0  0  0  0  0  0
    5.5780    0.7230   17.2650 N   0  0  0  0  0  0  0  0  0  0  0  0
    6.1510    0.1390   18.3370 C   0  0  0  0  0  0  0  0  0  0  0  0
    8.5070   -0.2930   22.0260 N   0  0  0  0  0  0  0  0  0  0  0  0
    9.8870   -0.2080   22.3040 C   0  0  0  0  0  0  0  0  0  0  0  0
   10.8040   -0.9990   21.5970 C   0  0  0  0  0  0  0  0  0  0  0  0
   12.1830   -0.8150   21.7700 C   0  0  0  0  0  0  0  0  0  0  0  0
   12.6440    0.1450   22.6820 C   0  0  0  0  0  0  0  0  0  0  0  0
   11.7280    0.9000   23.4370 C   0  0  0  0  0  0  0  0  0  0  0  0
   12.2290    1.8030   24.5450 C   0  0  0  0  0  0  0  0  0  0  0  0
   12.2010    3.2550   24.2910 N   0  0  0  0  0  0  0  0  0  0  0  0
   10.8700    3.8910   24.3330 C   0  0  0  0  0  0  0  0  0  0  0  0
   11.0100    5.4120   24.6050 C   0  0  0  0  0  0  0  0  0  0  0  0
   12.3930    5.9750   24.1940 C   0  0  0  0  0  0  0  0  0  0  0  0
   12.8920    5.2650   22.9180 C   0  0  1  0  0  0  0  0  0  0  0  0
   14.0950    5.8840   22.4570 O   0  0  0  0  0  0  0  0  0  0  0  0
   13.0630    3.7410   23.1820 C   0  0  0  0  0  0  0  0  0  0  0  0
   10.3490    0.7230   23.2410 C   0  0  0  0  0  0  0  0  0  0  0  0
  1  2  2  0
  2 10  1  0
  2  3  1  0
  3  4  1  0
  4  5  2  0
  4  9  1  0
  5  6  1  0
  6  7  2  0
  7  8  1  0
  8  9  2  0
 10 11  1  0
 11 12  2  0
 11 24  1  0
 12 13  1  0
 13 14  2  0
 14 15  1  0
 15 16  1  0
 15 24  2  0
 16 17  1  0
 17 18  1  0
 17 23  1  0
 18 19  1  0
 19 20  1  0
 20 21  1  0
 21 22  1  1
 21 23  1  0
M  END
>  <original SMILES>  (926) 
O=C(Nc1cccnc1)Nc1cccc(CN2CCCC(O)C2)c1

>  <AutoDock Predicted Affinity>  (926) 
-6.89352

>  <ref_pdb>  (926) 
x0434_0

>  <ref_mols>  (926) 
x0434_0

>  <creator>  (926) 
Will Poole

>  <energy minimised>  (926) 
True

$$$$
WPC2344_minimised.pdb
     RDKit          3D

 24 26  0  0  1  0  0  0  0  0999 V2000
    8.7920    0.4160   20.0950 O   0  0  0  0  0  0  0  0  0  0  0  0
    8.1310   -0.1020   20.9740 C   0  0  0  0  0  0  0  0  0  0  0  0
    6.7730   -0.2240   20.8790 N   0  0  0  0  0  0  0  0  0  0  0  0
    6.0090    0.2720   19.7960 C   0  0  0  0  0  0  0  0  0  0  0  0
    4.9940    1.2040   20.0370 C   0  0  0  0  0  0  0  0  0  0  0  0
    4.3440    1.7580   18.9270 C   0  0  0  0  0  0  0  0  0  0  0  0
    4.7290    1.3720   17.6350 C   0  0  0  0  0  0  0  0  0  0  0  0
    5.6820    0.4450   17.3920 N   0  0  0  0  0  0  0  0  0  0  0  0
    6.3240   -0.0690   18.4620 C   0  0  0  0  0  0  0  0  0  0  0  0
    8.6590   -0.6020   22.1330 N   0  0  0  0  0  0  0  0  0  0  0  0
   10.0130   -0.4550   22.4900 C   0  0  0  0  0  0  0  0  0  0  0  0
   11.0180   -1.0420   21.7110 C   0  0  0  0  0  0  0  0  0  0  0  0
   12.3660   -0.7230   21.9320 C   0  0  0  0  0  0  0  0  0  0  0  0
   12.7030    0.2010   22.9320 C   0  0  0  0  0  0  0  0  0  0  0  0
   11.6970    0.7610   23.7420 C   0  0  0  0  0  0  0  0  0  0  0  0
   12.0590    1.7260   24.8490 C   0  0  0  0  0  0  0  0  0  0  0  0
   11.8780    3.1830   24.5950 N   0  0  0  0  0  0  0  0  0  0  0  0
   12.8390    3.8770   23.7130 C   0  0  0  0  0  0  0  0  0  0  0  0
   12.5200    3.6900   22.2260 C   0  0  0  0  0  0  0  0  0  0  0  0
   11.0360    3.3800   21.9270 C   0  0  0  0  0  0  0  0  0  0  0  0
   10.0660    3.9730   22.9810 C   0  0  1  0  0  0  0  0  0  0  0  0
    8.3050    3.5030   22.6690 S   0  0  0  0  0  0  0  0  0  0  0  0
   10.4800    3.6360   24.4400 C   0  0  0  0  0  0  0  0  0  0  0  0
   10.3550    0.4020   23.5390 C   0  0  0  0  0  0  0  0  0  0  0  0
  1  2  2  0
  2 10  1  0
  2  3  1  0
  3  4  1  0
  4  5  2  0
  4  9  1  0
  5  6  1  0
  6  7  2  0
  7  8  1  0
  8  9  2  0
 10 11  1  0
 11 12  2  0
 11 24  1  0
 12 13  1  0
 13 14  2  0
 14 15  1  0
 15 16  1  0
 15 24  2  0
 16 17  1  0
 17 18  1  0
 17 23  1  0
 18 19  1  0
 19 20  1  0
 20 21  1  0
 21 22  1  6
 21 23  1  0
M  END
>  <original SMILES>  (927) 
O=C(Nc1cccnc1)Nc1cccc(CN2CCCC(S)C2)c1

>  <AutoDock Predicted Affinity>  (927) 
-5.45582

>  <ref_pdb>  (927) 
x0434_0

>  <ref_mols>  (927) 
x0434_0

>  <creator>  (927) 
Will Poole

>  <energy minimised>  (927) 
True

$$$$
WPC2610_minimised.pdb
     RDKit          3D

 23 25  0  0  0  0  0  0  0  0999 V2000
    8.6180   -0.2120   19.7830 O   0  0  0  0  0  0  0  0  0  0  0  0
    7.9170   -0.4560   20.7450 C   0  0  0  0  0  0  0  0  0  0  0  0
    6.5550   -0.3310   20.7040 N   0  0  0  0  0  0  0  0  0  0  0  0
    5.8510    0.2920   19.6450 C   0  0  0  0  0  0  0  0  0  0  0  0
    4.9320    1.3080   19.9390 C   0  0  0  0  0  0  0  0  0  0  0  0
    4.3670    2.0080   18.8640 C   0  0  0  0  0  0  0  0  0  0  0  0
    4.7450    1.6870   17.5520 C   0  0  0  0  0  0  0  0  0  0  0  0
    5.5950    0.6780   17.2580 N   0  0  0  0  0  0  0  0  0  0  0  0
    6.1420    0.0090   18.2920 C   0  0  0  0  0  0  0  0  0  0  0  0
    8.4060   -0.8170   21.9710 N   0  0  0  0  0  0  0  0  0  0  0  0
    9.7560   -0.6460   22.3370 C   0  0  0  0  0  0  0  0  0  0  0  0
   10.7840   -1.2680   21.6190 C   0  0  0  0  0  0  0  0  0  0  0  0
   12.1240   -0.9140   21.8420 C   0  0  0  0  0  0  0  0  0  0  0  0
   12.4320    0.0590   22.8060 C   0  0  0  0  0  0  0  0  0  0  0  0
   11.4050    0.6310   23.5780 C   0  0  0  0  0  0  0  0  0  0  0  0
   11.7180    1.6240   24.6800 C   0  0  0  0  0  0  0  0  0  0  0  0
   11.5770    3.0410   24.2960 N   0  0  0  0  0  0  0  0  0  0  0  0
   10.2700    3.4240   23.7210 C   0  0  0  0  0  0  0  0  0  0  0  0
   10.0670    4.9570   23.7220 C   0  0  0  0  0  0  0  0  0  0  0  0
   11.3620    5.7320   24.0420 C   0  0  0  0  0  0  0  0  0  0  0  0
   12.5440    5.1170   23.2590 C   0  0  0  0  0  0  0  0  0  0  0  0
   12.7330    3.6130   23.5740 C   0  0  0  0  0  0  0  0  0  0  0  0
   10.0690    0.2660   23.3460 C   0  0  0  0  0  0  0  0  0  0  0  0
  1  2  2  0
  2  3  1  0
  2 10  1  0
  3  4  1  0
  4  5  2  0
  4  9  1  0
  5  6  1  0
  6  7  2  0
  7  8  1  0
  8  9  2  0
 10 11  1  0
 11 23  1  0
 11 12  2  0
 12 13  1  0
 13 14  2  0
 14 15  1  0
 15 16  1  0
 15 23  2  0
 16 17  1  0
 17 18  1  0
 17 22  1  0
 18 19  1  0
 19 20  1  0
 20 21  1  0
 21 22  1  0
M  END
>  <original SMILES>  (928) 
O=C(Nc1cccnc1)Nc1cccc(CN2CCCCC2)c1

>  <AutoDock Predicted Affinity>  (928) 
-6.73535

>  <ref_pdb>  (928) 
x0434_0

>  <ref_mols>  (928) 
x0434_0

>  <creator>  (928) 
Will Poole

>  <energy minimised>  (928) 
True

$$$$
WPC2038_minimised.pdb
     RDKit          3D

 23 25  0  0  0  0  0  0  0  0999 V2000
    8.6320   -0.1070   19.8120 O   0  0  0  0  0  0  0  0  0  0  0  0
    7.9390   -0.4060   20.7630 C   0  0  0  0  0  0  0  0  0  0  0  0
    6.5720   -0.3450   20.7150 N   0  0  0  0  0  0  0  0  0  0  0  0
    5.8550    0.2710   19.6600 C   0  0  0  0  0  0  0  0  0  0  0  0
    4.9280    1.2780   19.9600 C   0  0  0  0  0  0  0  0  0  0  0  0
    4.3590    1.9810   18.8890 C   0  0  0  0  0  0  0  0  0  0  0  0
    4.7380    1.6690   17.5750 C   0  0  0  0  0  0  0  0  0  0  0  0
    5.5960    0.6680   17.2750 N   0  0  0  0  0  0  0  0  0  0  0  0
    6.1490   -0.0020   18.3060 C   0  0  0  0  0  0  0  0  0  0  0  0
    8.4390   -0.7740   21.9820 N   0  0  0  0  0  0  0  0  0  0  0  0
    9.7810   -0.5580   22.3540 C   0  0  0  0  0  0  0  0  0  0  0  0
   10.8340   -1.1570   21.6520 C   0  0  0  0  0  0  0  0  0  0  0  0
   12.1630   -0.7760   21.9000 C   0  0  0  0  0  0  0  0  0  0  0  0
   12.4340    0.2040   22.8690 C   0  0  0  0  0  0  0  0  0  0  0  0
   11.3810    0.7640   23.6150 C   0  0  0  0  0  0  0  0  0  0  0  0
   11.6510    1.7670   24.7180 C   0  0  0  0  0  0  0  0  0  0  0  0
   11.5130    3.1790   24.3200 N   0  0  0  0  0  0  0  0  0  0  0  0
   12.7200    3.8040   23.7280 C   0  0  0  0  0  0  0  0  0  0  0  0
   12.4580    5.2110   23.1180 C   0  0  0  0  0  0  0  0  0  0  0  0
   11.2910    5.8980   23.7240 N   0  0  0  0  0  0  0  0  0  0  0  0
   10.0440    5.1050   23.5990 C   0  0  0  0  0  0  0  0  0  0  0  0
   10.2550    3.5630   23.6390 C   0  0  0  0  0  0  0  0  0  0  0  0
   10.0580    0.3700   23.3600 C   0  0  0  0  0  0  0  0  0  0  0  0
  1  2  2  0
  2  3  1  0
  2 10  1  0
  3  4  1  0
  4  5  2  0
  4  9  1  0
  5  6  1  0
  6  7  2  0
  7  8  1  0
  8  9  2  0
 10 11  1  0
 11 23  1  0
 11 12  2  0
 12 13  1  0
 13 14  2  0
 14 15  1  0
 15 16  1  0
 15 23  2  0
 16 17  1  0
 17 18  1  0
 17 22  1  0
 18 19  1  0
 19 20  1  0
 20 21  1  0
 21 22  1  0
M  END
>  <original SMILES>  (929) 
O=C(Nc1cccnc1)Nc1cccc(CN2CCNCC2)c1

>  <AutoDock Predicted Affinity>  (929) 
-6.60404

>  <ref_pdb>  (929) 
x0434_0

>  <ref_mols>  (929) 
x0434_0

>  <creator>  (929) 
Will Poole

>  <energy minimised>  (929) 
True

$$$$
WPC1606_minimised.pdb
     RDKit          3D

 23 25  0  0  0  0  0  0  0  0999 V2000
    8.5910   -0.3770   19.8610 O   0  0  0  0  0  0  0  0  0  0  0  0
    7.9020   -0.5450   20.8470 C   0  0  0  0  0  0  0  0  0  0  0  0
    6.5440   -0.3750   20.8170 N   0  0  0  0  0  0  0  0  0  0  0  0
    5.8400    0.2150   19.7360 C   0  0  0  0  0  0  0  0  0  0  0  0
    4.9150    1.2320   20.0020 C   0  0  0  0  0  0  0  0  0  0  0  0
    4.3370    1.8920   18.9090 C   0  0  0  0  0  0  0  0  0  0  0  0
    4.7080    1.5310   17.6060 C   0  0  0  0  0  0  0  0  0  0  0  0
    5.5640    0.5220   17.3370 N   0  0  0  0  0  0  0  0  0  0  0  0
    6.1270   -0.1070   18.3890 C   0  0  0  0  0  0  0  0  0  0  0  0
    8.4030   -0.8670   22.0820 N   0  0  0  0  0  0  0  0  0  0  0  0
    9.7710   -0.7510   22.4100 C   0  0  0  0  0  0  0  0  0  0  0  0
   10.7490   -1.3630   21.6170 C   0  0  0  0  0  0  0  0  0  0  0  0
   12.1040   -1.0360   21.7730 C   0  0  0  0  0  0  0  0  0  0  0  0
   12.4800   -0.0970   22.7440 C   0  0  0  0  0  0  0  0  0  0  0  0
   11.5090    0.4630   23.5940 C   0  0  0  0  0  0  0  0  0  0  0  0
   11.9130    1.4250   24.6920 C   0  0  0  0  0  0  0  0  0  0  0  0
   11.7690    2.8680   24.3820 N   0  0  0  0  0  0  0  0  0  0  0  0
   10.3680    3.3340   24.2370 C   0  0  0  0  0  0  0  0  0  0  0  0
    9.8120    3.2550   22.7820 C   0  0  0  0  0  0  0  0  0  0  0  0
   10.8830    3.1760   21.8110 O   0  0  0  0  0  0  0  0  0  0  0  0
   12.0000    4.0240   22.1330 C   0  0  0  0  0  0  0  0  0  0  0  0
   12.7100    3.4070   23.3610 C   0  0  0  0  0  0  0  0  0  0  0  0
   10.1580    0.1070   23.4420 C   0  0  0  0  0  0  0  0  0  0  0  0
  1  2  2  0
  2  3  1  0
  2 10  1  0
  3  4  1  0
  4  5  2  0
  4  9  1  0
  5  6  1  0
  6  7  2  0
  7  8  1  0
  8  9  2  0
 10 11  1  0
 11 23  1  0
 11 12  2  0
 12 13  1  0
 13 14  2  0
 14 15  1  0
 15 16  1  0
 15 23  2  0
 16 17  1  0
 17 18  1  0
 17 22  1  0
 18 19  1  0
 19 20  1  0
 20 21  1  0
 21 22  1  0
M  END
>  <original SMILES>  (930) 
O=C(Nc1cccnc1)Nc1cccc(CN2CCOCC2)c1

>  <AutoDock Predicted Affinity>  (930) 
-5.38946

>  <ref_pdb>  (930) 
x0434_0

>  <ref_mols>  (930) 
x0434_0

>  <creator>  (930) 
Will Poole

>  <energy minimised>  (930) 
True

$$$$
WPC1294_minimised.pdb
     RDKit          3D

 23 25  0  0  0  0  0  0  0  0999 V2000
    8.6150   -0.1210   19.7820 O   0  0  0  0  0  0  0  0  0  0  0  0
    7.9120   -0.3930   20.7340 C   0  0  0  0  0  0  0  0  0  0  0  0
    6.5470   -0.3080   20.6830 N   0  0  0  0  0  0  0  0  0  0  0  0
    5.8370    0.3090   19.6250 C   0  0  0  0  0  0  0  0  0  0  0  0
    4.9080    1.3150   19.9210 C   0  0  0  0  0  0  0  0  0  0  0  0
    4.3430    2.0160   18.8470 C   0  0  0  0  0  0  0  0  0  0  0  0
    4.7300    1.7060   17.5350 C   0  0  0  0  0  0  0  0  0  0  0  0
    5.5910    0.7060   17.2390 N   0  0  0  0  0  0  0  0  0  0  0  0
    6.1380    0.0360   18.2730 C   0  0  0  0  0  0  0  0  0  0  0  0
    8.4000   -0.7460   21.9620 N   0  0  0  0  0  0  0  0  0  0  0  0
    9.7440   -0.5470   22.3360 C   0  0  0  0  0  0  0  0  0  0  0  0
   10.7870   -1.1810   21.6490 C   0  0  0  0  0  0  0  0  0  0  0  0
   12.1220   -0.8260   21.9000 C   0  0  0  0  0  0  0  0  0  0  0  0
   12.4100    0.1570   22.8610 C   0  0  0  0  0  0  0  0  0  0  0  0
   11.3650    0.7500   23.5930 C   0  0  0  0  0  0  0  0  0  0  0  0
   11.6510    1.7510   24.6940 C   0  0  0  0  0  0  0  0  0  0  0  0
   11.6250    3.1630   24.2680 N   0  0  0  0  0  0  0  0  0  0  0  0
   12.8830    3.6340   23.6460 C   0  0  0  0  0  0  0  0  0  0  0  0
   12.8220    5.0930   23.1460 C   0  0  0  0  0  0  0  0  0  0  0  0
   11.6740    6.0880   24.1850 S   0  0  0  0  0  0  0  0  0  0  0  0
   10.1580    5.1480   23.7060 C   0  0  0  0  0  0  0  0  0  0  0  0
   10.3760    3.6160   23.6160 C   0  0  0  0  0  0  0  0  0  0  0  0
   10.0350    0.3890   23.3300 C   0  0  0  0  0  0  0  0  0  0  0  0
  1  2  2  0
  2  3  1  0
  2 10  1  0
  3  4  1  0
  4  5  2  0
  4  9  1  0
  5  6  1  0
  6  7  2  0
  7  8  1  0
  8  9  2  0
 10 11  1  0
 11 23  1  0
 11 12  2  0
 12 13  1  0
 13 14  2  0
 14 15  1  0
 15 16  1  0
 15 23  2  0
 16 17  1  0
 17 18  1  0
 17 22  1  0
 18 19  1  0
 19 20  1  0
 20 21  1  0
 21 22  1  0
M  END
>  <original SMILES>  (931) 
O=C(Nc1cccnc1)Nc1cccc(CN2CCSCC2)c1

>  <AutoDock Predicted Affinity>  (931) 
-6.48265

>  <ref_pdb>  (931) 
x0434_0

>  <ref_mols>  (931) 
x0434_0

>  <creator>  (931) 
Will Poole

>  <energy minimised>  (931) 
True

$$$$
WPC2382_minimised.pdb
     RDKit          3D

 24 26  0  0  0  0  0  0  0  0999 V2000
    8.7500    0.1280   20.0010 O   0  0  0  0  0  0  0  0  0  0  0  0
    8.1140   -0.2420   20.9670 C   0  0  0  0  0  0  0  0  0  0  0  0
    6.7450   -0.2190   20.9630 N   0  0  0  0  0  0  0  0  0  0  0  0
    5.9850    0.3200   19.8910 C   0  0  0  0  0  0  0  0  0  0  0  0
    5.0530    1.3340   20.1440 C   0  0  0  0  0  0  0  0  0  0  0  0
    4.4540    1.9600   19.0420 C   0  0  0  0  0  0  0  0  0  0  0  0
    4.8060    1.5660   17.7410 C   0  0  0  0  0  0  0  0  0  0  0  0
    5.6640    0.5530   17.4870 N   0  0  0  0  0  0  0  0  0  0  0  0
    6.2510   -0.0370   18.5480 C   0  0  0  0  0  0  0  0  0  0  0  0
    8.7060   -0.6810   22.1250 N   0  0  0  0  0  0  0  0  0  0  0  0
   10.1050   -0.6420   22.3060 C   0  0  0  0  0  0  0  0  0  0  0  0
   10.9270   -1.4900   21.5560 C   0  0  0  0  0  0  0  0  0  0  0  0
   12.3110   -1.2670   21.5010 C   0  0  0  0  0  0  0  0  0  0  0  0
   12.8720   -0.1830   22.1910 C   0  0  0  0  0  0  0  0  0  0  0  0
   12.0580    0.6500   22.9780 C   0  0  0  0  0  0  0  0  0  0  0  0
   12.6850    1.8060   23.7420 C   0  0  0  0  0  0  0  0  0  0  0  0
   12.2530    3.1630   23.3640 N   0  0  0  0  0  0  0  0  0  0  0  0
   10.5690    3.5430   23.2700 S   0  0  0  0  0  0  0  0  0  0  0  0
   10.9240    5.2570   23.3160 C   0  0  0  0  0  0  0  0  0  0  0  0
    9.6690    6.4430   23.2350 Cl  0  0  0  0  0  0  0  0  0  0  0  0
   12.2790    5.4470   23.3950 C   0  0  0  0  0  0  0  0  0  0  0  0
   13.0940    4.2520   23.3920 C   0  0  0  0  0  0  0  0  0  0  0  0
   14.3070    4.2440   23.4850 O   0  0  0  0  0  0  0  0  0  0  0  0
   10.6780    0.3800   23.0680 C   0  0  0  0  0  0  0  0  0  0  0  0
  1  2  2  0
  2  3  1  0
  2 10  1  0
  3  4  1  0
  4  5  2  0
  4  9  1  0
  5  6  1  0
  6  7  2  0
  7  8  1  0
  8  9  2  0
 10 11  1  0
 11 24  1  0
 11 12  2  0
 12 13  1  0
 13 14  2  0
 14 15  1  0
 15 16  1  0
 15 24  2  0
 16 17  1  0
 17 18  1  0
 17 22  1  0
 18 19  2  0
 19 20  1  0
 19 21  1  0
 21 22  1  0
 22 23  2  0
M  END
>  <original SMILES>  (932) 
O=C(Nc1cccnc1)Nc1cccc(CN2[SH]=C(Cl)CC2=O)c1

>  <AutoDock Predicted Affinity>  (932) 
-6.700885

>  <ref_pdb>  (932) 
x0434_0

>  <ref_mols>  (932) 
x0434_0

>  <creator>  (932) 
Will Poole

>  <energy minimised>  (932) 
True

$$$$
WPC1715_minimised.pdb
     RDKit          3D

 23 25  0  0  0  0  0  0  0  0999 V2000
    8.5070   -0.1390   19.6610 O   0  0  0  0  0  0  0  0  0  0  0  0
    7.8390   -0.2270   20.6720 C   0  0  0  0  0  0  0  0  0  0  0  0
    6.4820   -0.0580   20.6690 N   0  0  0  0  0  0  0  0  0  0  0  0
    5.7530    0.5030   19.5900 C   0  0  0  0  0  0  0  0  0  0  0  0
    4.8250    1.5170   19.8570 C   0  0  0  0  0  0  0  0  0  0  0  0
    4.2380    2.1680   18.7640 C   0  0  0  0  0  0  0  0  0  0  0  0
    4.6100    1.8080   17.4610 C   0  0  0  0  0  0  0  0  0  0  0  0
    5.4630    0.7940   17.1940 N   0  0  0  0  0  0  0  0  0  0  0  0
    6.0240    0.1650   18.2450 C   0  0  0  0  0  0  0  0  0  0  0  0
    8.3740   -0.4440   21.9120 N   0  0  0  0  0  0  0  0  0  0  0  0
    9.7540   -0.3380   22.1750 C   0  0  0  0  0  0  0  0  0  0  0  0
   10.6610   -1.2340   21.5940 C   0  0  0  0  0  0  0  0  0  0  0  0
   12.0410   -1.0180   21.7180 C   0  0  0  0  0  0  0  0  0  0  0  0
   12.5120    0.0940   22.4330 C   0  0  0  0  0  0  0  0  0  0  0  0
   11.6050    0.9770   23.0500 C   0  0  0  0  0  0  0  0  0  0  0  0
   12.1340    2.1040   23.9220 C   0  0  0  0  0  0  0  0  0  0  0  0
   11.8310    3.4850   23.5140 N   0  0  0  0  0  0  0  0  0  0  0  0
   10.1960    4.0530   23.5690 S   0  0  0  0  0  0  0  0  0  0  0  0
   10.7310    5.7250   23.6930 C   0  0  0  0  0  0  0  0  0  0  0  0
   12.1060    5.7440   23.6750 C   0  0  0  0  0  0  0  0  0  0  0  0
   12.7880    4.4720   23.5390 C   0  0  0  0  0  0  0  0  0  0  0  0
   13.9970    4.3300   23.5400 O   0  0  0  0  0  0  0  0  0  0  0  0
   10.2240    0.7430   22.9290 C   0  0  0  0  0  0  0  0  0  0  0  0
  1  2  2  0
  2  3  1  0
  2 10  1  0
  3  4  1  0
  4  5  2  0
  4  9  1  0
  5  6  1  0
  6  7  2  0
  7  8  1  0
  8  9  2  0
 10 11  1  0
 11 23  1  0
 11 12  2  0
 12 13  1  0
 13 14  2  0
 14 15  1  0
 15 16  1  0
 15 23  2  0
 16 17  1  0
 17 18  1  0
 17 21  1  0
 18 19  2  0
 19 20  1  0
 20 21  1  0
 21 22  2  0
M  END
>  <original SMILES>  (933) 
O=C(Nc1cccnc1)Nc1cccc(CN2[SH]=CCC2=O)c1

>  <AutoDock Predicted Affinity>  (933) 
-6.448743

>  <ref_pdb>  (933) 
x0434_0

>  <ref_mols>  (933) 
x0434_0

>  <creator>  (933) 
Will Poole

>  <energy minimised>  (933) 
True

$$$$
WPC2501_minimised.pdb
     RDKit          3D

 23 25  0  0  0  0  0  0  0  0999 V2000
    8.1670    0.3400   19.9880 O   0  0  0  0  0  0  0  0  0  0  0  0
    7.2830   -0.0090   20.7470 C   0  0  0  0  0  0  0  0  0  0  0  0
    5.9560    0.1440   20.4690 N   0  0  0  0  0  0  0  0  0  0  0  0
    5.4430    0.7890   19.3240 C   0  0  0  0  0  0  0  0  0  0  0  0
    4.4610    1.7760   19.4720 C   0  0  0  0  0  0  0  0  0  0  0  0
    4.0710    2.4760   18.3240 C   0  0  0  0  0  0  0  0  0  0  0  0
    4.6760    2.1850   17.0940 C   0  0  0  0  0  0  0  0  0  0  0  0
    5.5940    1.2030   16.9370 N   0  0  0  0  0  0  0  0  0  0  0  0
    5.9720    0.5330   18.0420 C   0  0  0  0  0  0  0  0  0  0  0  0
    7.4980   -0.5600   21.9770 N   0  0  0  0  0  0  0  0  0  0  0  0
    8.7710   -0.6400   22.5580 C   0  0  0  0  0  0  0  0  0  0  0  0
    9.5310   -1.8120   22.4570 C   0  0  0  0  0  0  0  0  0  0  0  0
   10.8620   -1.8130   22.8960 C   0  0  0  0  0  0  0  0  0  0  0  0
   11.4280   -0.6340   23.4130 C   0  0  0  0  0  0  0  0  0  0  0  0
   10.6610    0.5330   23.5320 C   0  0  0  0  0  0  0  0  0  0  0  0
   11.2890    1.8080   24.0530 C   0  0  0  0  0  0  0  0  0  0  0  0
   10.9750    2.9430   23.1890 N   0  0  0  0  0  0  0  0  0  0  0  0
   11.2490    4.2330   23.5380 C   0  0  0  0  0  0  0  0  0  0  0  0
   11.9640    4.5360   24.4710 O   0  0  0  0  0  0  0  0  0  0  0  0
   10.5460    5.2520   22.7010 C   0  0  0  0  0  0  0  0  0  0  0  0
    9.6190    6.1880   23.4230 C   0  0  0  0  0  0  0  0  0  0  0  0
    9.0470    5.1530   22.4910 C   0  0  0  0  0  0  0  0  0  0  0  0
    9.3230    0.5200   23.1140 C   0  0  0  0  0  0  0  0  0  0  0  0
  1  2  2  0
  2  3  1  0
  2 10  1  0
  3  4  1  0
  4  5  2  0
  4  9  1  0
  5  6  1  0
  6  7  2  0
  7  8  1  0
  8  9  2  0
 10 11  1  0
 11 23  1  0
 11 12  2  0
 12 13  1  0
 13 14  2  0
 14 15  1  0
 15 16  1  0
 15 23  2  0
 16 17  1  0
 17 18  1  0
 18 19  2  0
 18 20  1  0
 20 21  1  0
 20 22  1  0
 21 22  1  0
M  END
>  <original SMILES>  (934) 
O=C(Nc1cccnc1)Nc1cccc(CNC(=O)C2CC2)c1

>  <AutoDock Predicted Affinity>  (934) 
-5.992425

>  <ref_pdb>  (934) 
x0434_0

>  <ref_mols>  (934) 
x0434_0

>  <creator>  (934) 
Will Poole

>  <energy minimised>  (934) 
True

$$$$
WPC2175_minimised.pdb
     RDKit          3D

 24 26  0  0  0  0  0  0  0  0999 V2000
    8.5140   -0.1450   19.6250 O   0  0  0  0  0  0  0  0  0  0  0  0
    7.7240   -0.4110   20.5080 C   0  0  0  0  0  0  0  0  0  0  0  0
    6.3750   -0.2480   20.3730 N   0  0  0  0  0  0  0  0  0  0  0  0
    5.7490    0.4570   19.3220 C   0  0  0  0  0  0  0  0  0  0  0  0
    4.8130    1.4540   19.6240 C   0  0  0  0  0  0  0  0  0  0  0  0
    4.2990    2.2070   18.5610 C   0  0  0  0  0  0  0  0  0  0  0  0
    4.7510    1.9620   17.2560 C   0  0  0  0  0  0  0  0  0  0  0  0
    5.6320    0.9810   16.9560 N   0  0  0  0  0  0  0  0  0  0  0  0
    6.1230    0.2550   17.9790 C   0  0  0  0  0  0  0  0  0  0  0  0
    8.0620   -0.8330   21.7600 N   0  0  0  0  0  0  0  0  0  0  0  0
    9.2890   -0.5250   22.3700 C   0  0  0  0  0  0  0  0  0  0  0  0
   10.5120   -0.9950   21.8710 C   0  0  0  0  0  0  0  0  0  0  0  0
   11.7180   -0.5310   22.4240 C   0  0  0  0  0  0  0  0  0  0  0  0
   11.6930    0.3950   23.4820 C   0  0  0  0  0  0  0  0  0  0  0  0
   10.4620    0.8520   23.9880 C   0  0  0  0  0  0  0  0  0  0  0  0
   10.3870    1.9120   25.0660 C   0  0  0  0  0  0  0  0  0  0  0  0
   10.8890    3.2030   24.5780 N   0  0  0  0  0  0  0  0  0  0  0  0
   10.2440    3.9260   23.6080 C   0  0  0  0  0  0  0  0  0  0  0  0
    8.6750    3.6750   23.1250 S   0  0  0  0  0  0  0  0  0  0  0  0
   11.0430    4.8350   22.9690 N   0  0  0  0  0  0  0  0  0  0  0  0
   12.3960    5.2240   23.2890 C   0  0  0  0  0  0  0  0  0  0  0  0
   13.4380    4.1570   23.0640 C   0  0  0  0  0  0  0  0  0  0  0  0
   13.2720    5.2640   22.0590 C   0  0  0  0  0  0  0  0  0  0  0  0
    9.2670    0.3810   23.4310 C   0  0  0  0  0  0  0  0  0  0  0  0
  1  2  2  0
  2  3  1  0
  2 10  1  0
  3  4  1  0
  4  5  2  0
  4  9  1  0
  5  6  1  0
  6  7  2  0
  7  8  1  0
  8  9  2  0
 10 11  1  0
 11 24  1  0
 11 12  2  0
 12 13  1  0
 13 14  2  0
 14 15  1  0
 15 16  1  0
 15 24  2  0
 16 17  1  0
 17 18  1  0
 18 19  2  0
 18 20  1  0
 20 21  1  0
 21 22  1  0
 21 23  1  0
 22 23  1  0
M  END
>  <original SMILES>  (935) 
O=C(Nc1cccnc1)Nc1cccc(CNC(=S)NC2CC2)c1

>  <AutoDock Predicted Affinity>  (935) 
-5.9807

>  <ref_pdb>  (935) 
x0434_0

>  <ref_mols>  (935) 
x0434_0

>  <creator>  (935) 
Will Poole

>  <energy minimised>  (935) 
True

$$$$
WPC1691_minimised.pdb
     RDKit          3D

 21 23  0  0  0  0  0  0  0  0999 V2000
    8.3500   -0.0120   19.6120 O   0  0  0  0  0  0  0  0  0  0  0  0
    7.5750   -0.1140   20.5430 C   0  0  0  0  0  0  0  0  0  0  0  0
    6.2290    0.0820   20.4190 N   0  0  0  0  0  0  0  0  0  0  0  0
    5.5990    0.6890   19.3100 C   0  0  0  0  0  0  0  0  0  0  0  0
    4.6430    1.6860   19.5370 C   0  0  0  0  0  0  0  0  0  0  0  0
    4.1400    2.3700   18.4240 C   0  0  0  0  0  0  0  0  0  0  0  0
    4.6260    2.0630   17.1460 C   0  0  0  0  0  0  0  0  0  0  0  0
    5.5140    1.0710   16.9150 N   0  0  0  0  0  0  0  0  0  0  0  0
    5.9900    0.4050   17.9840 C   0  0  0  0  0  0  0  0  0  0  0  0
    7.9480   -0.3660   21.8310 N   0  0  0  0  0  0  0  0  0  0  0  0
    9.2610   -0.1900   22.3050 C   0  0  0  0  0  0  0  0  0  0  0  0
   10.3370   -0.8970   21.7490 C   0  0  0  0  0  0  0  0  0  0  0  0
   11.6510   -0.5990   22.1420 C   0  0  0  0  0  0  0  0  0  0  0  0
   11.8810    0.4020   23.1010 C   0  0  0  0  0  0  0  0  0  0  0  0
   10.7980    1.0910   23.6790 C   0  0  0  0  0  0  0  0  0  0  0  0
   11.0270    2.1350   24.7550 C   0  0  0  0  0  0  0  0  0  0  0  0
   10.3010    3.3980   24.5580 N   0  0  0  0  0  0  0  0  0  0  0  0
   10.6490    4.1320   23.3700 C   0  0  0  0  0  0  0  0  0  0  0  0
   11.7830    5.1190   23.4490 C   0  0  0  0  0  0  0  0  0  0  0  0
   10.3550    5.6070   23.3720 C   0  0  0  0  0  0  0  0  0  0  0  0
    9.4890    0.7870   23.2780 C   0  0  0  0  0  0  0  0  0  0  0  0
  1  2  2  0
  2  3  1  0
  2 10  1  0
  3  4  1  0
  4  5  2  0
  4  9  1  0
  5  6  1  0
  6  7  2  0
  7  8  1  0
  8  9  2  0
 10 11  1  0
 11 21  1  0
 11 12  2  0
 12 13  1  0
 13 14  2  0
 14 15  1  0
 15 16  1  0
 15 21  2  0
 16 17  1  0
 17 18  1  0
 18 19  1  0
 18 20  1  0
 19 20  1  0
M  END
>  <original SMILES>  (936) 
O=C(Nc1cccnc1)Nc1cccc(CNC2CC2)c1

>  <AutoDock Predicted Affinity>  (936) 
-5.50512

>  <ref_pdb>  (936) 
x0434_0

>  <ref_mols>  (936) 
x0434_0

>  <creator>  (936) 
Will Poole

>  <energy minimised>  (936) 
True

$$$$
WPC1069_minimised.pdb
     RDKit          3D

 22 23  0  0  0  0  0  0  0  0999 V2000
    8.3520   -0.0270   19.7030 O   0  0  0  0  0  0  0  0  0  0  0  0
    7.5700   -0.2980   20.5940 C   0  0  0  0  0  0  0  0  0  0  0  0
    6.2210   -0.1340   20.4660 N   0  0  0  0  0  0  0  0  0  0  0  0
    5.5940    0.5280   19.3870 C   0  0  0  0  0  0  0  0  0  0  0  0
    4.6500    1.5280   19.6490 C   0  0  0  0  0  0  0  0  0  0  0  0
    4.1510    2.2510   18.5580 C   0  0  0  0  0  0  0  0  0  0  0  0
    4.6240    1.9730   17.2670 C   0  0  0  0  0  0  0  0  0  0  0  0
    5.5070    0.9840   17.0030 N   0  0  0  0  0  0  0  0  0  0  0  0
    5.9840    0.2870   18.0520 C   0  0  0  0  0  0  0  0  0  0  0  0
    7.9280   -0.7440   21.8350 N   0  0  0  0  0  0  0  0  0  0  0  0
    9.2460   -0.6930   22.3270 C   0  0  0  0  0  0  0  0  0  0  0  0
   10.2950   -1.2950   21.6220 C   0  0  0  0  0  0  0  0  0  0  0  0
   11.6270   -1.0600   21.9940 C   0  0  0  0  0  0  0  0  0  0  0  0
   11.9020   -0.2440   23.1010 C   0  0  0  0  0  0  0  0  0  0  0  0
   10.8460    0.2860   23.8630 C   0  0  0  0  0  0  0  0  0  0  0  0
   11.1200    1.0930   25.1120 C   0  0  0  0  0  0  0  0  0  0  0  0
   10.2590    2.2830   25.2320 N   0  0  0  0  0  0  0  0  0  0  0  0
   10.8440    3.5470   24.7520 C   0  0  0  0  0  0  0  0  0  0  0  0
   11.2690    3.5230   23.2720 C   0  0  0  0  0  0  0  0  0  0  0  0
   12.1550    4.7300   22.9130 C   0  0  0  0  0  0  0  0  0  0  0  0
   13.4380    4.5880   23.5270 O   0  0  0  0  0  0  0  0  0  0  0  0
    9.5190    0.0710   23.4640 C   0  0  0  0  0  0  0  0  0  0  0  0
  1  2  2  0
  2 10  1  0
  2  3  1  0
  3  4  1  0
  4  5  2  0
  4  9  1  0
  5  6  1  0
  6  7  2  0
  7  8  1  0
  8  9  2  0
 10 11  1  0
 11 12  2  0
 11 22  1  0
 12 13  1  0
 13 14  2  0
 14 15  1  0
 15 16  1  0
 15 22  2  0
 16 17  1  0
 17 18  1  0
 18 19  1  0
 19 20  1  0
 20 21  1  0
M  END
>  <original SMILES>  (937) 
O=C(Nc1cccnc1)Nc1cccc(CNCCCO)c1

>  <AutoDock Predicted Affinity>  (937) 
-5.71465

>  <ref_pdb>  (937) 
x0434_0

>  <ref_mols>  (937) 
x0434_0

>  <creator>  (937) 
Will Poole

>  <energy minimised>  (937) 
True

$$$$
WPC1571_minimised.pdb
     RDKit          3D

 21 22  0  0  0  0  0  0  0  0999 V2000
    8.3450   -0.0690   19.6240 O   0  0  0  0  0  0  0  0  0  0  0  0
    7.5870   -0.1780   20.5680 C   0  0  0  0  0  0  0  0  0  0  0  0
    6.2400    0.0150   20.4660 N   0  0  0  0  0  0  0  0  0  0  0  0
    5.5970    0.6250   19.3660 C   0  0  0  0  0  0  0  0  0  0  0  0
    4.6520    1.6300   19.6060 C   0  0  0  0  0  0  0  0  0  0  0  0
    4.1420    2.3200   18.4990 C   0  0  0  0  0  0  0  0  0  0  0  0
    4.6110    2.0120   17.2150 C   0  0  0  0  0  0  0  0  0  0  0  0
    5.4880    1.0120   16.9720 N   0  0  0  0  0  0  0  0  0  0  0  0
    5.9690    0.3410   18.0350 C   0  0  0  0  0  0  0  0  0  0  0  0
    7.9880   -0.4440   21.8450 N   0  0  0  0  0  0  0  0  0  0  0  0
    9.3240   -0.3440   22.2710 C   0  0  0  0  0  0  0  0  0  0  0  0
   10.3320   -1.0960   21.6520 C   0  0  0  0  0  0  0  0  0  0  0  0
   11.6790   -0.8720   21.9740 C   0  0  0  0  0  0  0  0  0  0  0  0
   12.0090    0.0910   22.9410 C   0  0  0  0  0  0  0  0  0  0  0  0
   10.9920    0.8050   23.6020 C   0  0  0  0  0  0  0  0  0  0  0  0
   11.3320    1.7570   24.7270 C   0  0  0  0  0  0  0  0  0  0  0  0
   10.8610    3.1410   24.5440 N   0  0  0  0  0  0  0  0  0  0  0  0
   11.4360    3.8280   23.3640 C   0  0  0  0  0  0  0  0  0  0  0  0
   11.1180    5.3430   23.3840 C   0  0  0  0  0  0  0  0  0  0  0  0
    9.9350    5.5670   24.1440 O   0  0  0  0  0  0  0  0  0  0  0  0
    9.6510    0.5910   23.2580 C   0  0  0  0  0  0  0  0  0  0  0  0
  1  2  2  0
  2 10  1  0
  2  3  1  0
  3  4  1  0
  4  5  2  0
  4  9  1  0
  5  6  1  0
  6  7  2  0
  7  8  1  0
  8  9  2  0
 10 11  1  0
 11 12  2  0
 11 21  1  0
 12 13  1  0
 13 14  2  0
 14 15  1  0
 15 16  1  0
 15 21  2  0
 16 17  1  0
 17 18  1  0
 18 19  1  0
 19 20  1  0
M  END
>  <original SMILES>  (938) 
O=C(Nc1cccnc1)Nc1cccc(CNCCO)c1

>  <AutoDock Predicted Affinity>  (938) 
-5.18804

>  <ref_pdb>  (938) 
x0434_0

>  <ref_mols>  (938) 
x0434_0

>  <creator>  (938) 
Will Poole

>  <energy minimised>  (938) 
True

$$$$
WPC1161_minimised.pdb
     RDKit          3D

 19 20  0  0  0  0  0  0  0  0999 V2000
    8.7050    0.2660   19.9870 O   0  0  0  0  0  0  0  0  0  0  0  0
    7.9910    0.0990   20.9540 C   0  0  0  0  0  0  0  0  0  0  0  0
    6.6300    0.0070   20.8520 N   0  0  0  0  0  0  0  0  0  0  0  0
    5.9060    0.4730   19.7290 C   0  0  0  0  0  0  0  0  0  0  0  0
    4.9380    1.4660   19.9230 C   0  0  0  0  0  0  0  0  0  0  0  0
    4.3650    2.0490   18.7880 C   0  0  0  0  0  0  0  0  0  0  0  0
    4.7820    1.6390   17.5140 C   0  0  0  0  0  0  0  0  0  0  0  0
    5.6770    0.6440   17.3150 N   0  0  0  0  0  0  0  0  0  0  0  0
    6.2370    0.0900   18.4100 C   0  0  0  0  0  0  0  0  0  0  0  0
    8.4500    0.0710   22.2400 N   0  0  0  0  0  0  0  0  0  0  0  0
    9.6990    0.5970   22.6260 C   0  0  0  0  0  0  0  0  0  0  0  0
   10.9030    0.0100   22.2030 C   0  0  0  0  0  0  0  0  0  0  0  0
   12.1270    0.6230   22.5220 C   0  0  0  0  0  0  0  0  0  0  0  0
   12.1420    1.8290   23.2430 C   0  0  0  0  0  0  0  0  0  0  0  0
   10.9350    2.4220   23.6630 C   0  0  0  0  0  0  0  0  0  0  0  0
   10.9210    3.7350   24.4350 C   0  0  0  0  0  0  0  0  0  0  0  0
   10.2170    4.8230   23.7370 N   0  0  0  0  0  0  0  0  0  0  0  0
   11.0230    5.2410   22.6390 O   0  0  0  0  0  0  0  0  0  0  0  0
    9.7190    1.7900   23.3590 C   0  0  0  0  0  0  0  0  0  0  0  0
  1  2  2  0
  2 10  1  0
  2  3  1  0
  3  4  1  0
  4  5  2  0
  4  9  1  0
  5  6  1  0
  6  7  2  0
  7  8  1  0
  8  9  2  0
 10 11  1  0
 11 12  2  0
 11 19  1  0
 12 13  1  0
 13 14  2  0
 14 15  1  0
 15 16  1  0
 15 19  2  0
 16 17  1  0
 17 18  1  0
M  END
>  <original SMILES>  (939) 
O=C(Nc1cccnc1)Nc1cccc(CNO)c1

>  <AutoDock Predicted Affinity>  (939) 
-5.443075

>  <ref_pdb>  (939) 
x0434_0

>  <ref_mols>  (939) 
x0434_0

>  <creator>  (939) 
Will Poole

>  <energy minimised>  (939) 
True

$$$$
WPC1081_minimised.pdb
     RDKit          3D

 18 19  0  0  0  0  0  0  0  0999 V2000
    8.8460    0.5300   20.2980 O   0  0  0  0  0  0  0  0  0  0  0  0
    8.1180    0.4530   21.2660 C   0  0  0  0  0  0  0  0  0  0  0  0
    6.7610    0.3130   21.1500 N   0  0  0  0  0  0  0  0  0  0  0  0
    6.0430    0.6250   19.9680 C   0  0  0  0  0  0  0  0  0  0  0  0
    5.0220    1.5790   20.0490 C   0  0  0  0  0  0  0  0  0  0  0  0
    4.4480    2.0240   18.8540 C   0  0  0  0  0  0  0  0  0  0  0  0
    4.9110    1.5160   17.6330 C   0  0  0  0  0  0  0  0  0  0  0  0
    5.8500    0.5470   17.5410 N   0  0  0  0  0  0  0  0  0  0  0  0
    6.4160    0.1310   18.6960 C   0  0  0  0  0  0  0  0  0  0  0  0
    8.5700    0.5710   22.5510 N   0  0  0  0  0  0  0  0  0  0  0  0
    9.8500    1.0760   22.8610 C   0  0  0  0  0  0  0  0  0  0  0  0
   10.9870    0.2610   22.7510 C   0  0  0  0  0  0  0  0  0  0  0  0
   12.2640    0.8170   22.9300 C   0  0  0  0  0  0  0  0  0  0  0  0
   12.3990    2.1860   23.2100 C   0  0  0  0  0  0  0  0  0  0  0  0
   11.2630    3.0060   23.3240 C   0  0  0  0  0  0  0  0  0  0  0  0
   11.4070    4.4990   23.5660 C   0  0  0  0  0  0  0  0  0  0  0  0
   11.7240    5.1610   22.3490 O   0  0  0  0  0  0  0  0  0  0  0  0
    9.9880    2.4410   23.1510 C   0  0  0  0  0  0  0  0  0  0  0  0
  1  2  2  0
  2 10  1  0
  2  3  1  0
  3  4  1  0
  4  5  2  0
  4  9  1  0
  5  6  1  0
  6  7  2  0
  7  8  1  0
  8  9  2  0
 10 11  1  0
 11 12  2  0
 11 18  1  0
 12 13  1  0
 13 14  2  0
 14 15  1  0
 15 16  1  0
 15 18  2  0
 16 17  1  0
M  END
>  <original SMILES>  (940) 
O=C(Nc1cccnc1)Nc1cccc(CO)c1

>  <AutoDock Predicted Affinity>  (940) 
-5.53296

>  <ref_pdb>  (940) 
x0434_0

>  <ref_mols>  (940) 
x0434_0

>  <creator>  (940) 
Will Poole

>  <energy minimised>  (940) 
True

$$$$
WPC1939_minimised.pdb
     RDKit          3D

 21 22  0  0  0  0  0  0  0  0999 V2000
    9.1750    0.5620   20.4790 O   0  0  0  0  0  0  0  0  0  0  0  0
    8.6630   -0.3750   21.0750 C   0  0  0  0  0  0  0  0  0  0  0  0
    7.2910   -0.7020   20.8900 N   0  0  0  0  0  0  0  0  0  0  0  0
    6.5420   -0.0170   19.8510 C   0  0  0  0  0  0  0  0  0  0  0  0
    5.4390    0.7810   20.1700 C   0  0  0  0  0  0  0  0  0  0  0  0
    4.8510    1.4910   19.1120 C   0  0  0  0  0  0  0  0  0  0  0  0
    5.3420    1.3570   17.8250 C   0  0  0  0  0  0  0  0  0  0  0  0
    6.3830    0.5740   17.5170 N   0  0  0  0  0  0  0  0  0  0  0  0
    7.0720    0.0230   18.5470 C   0  0  0  0  0  0  0  0  0  0  0  0
    9.3620   -1.2360   22.0470 N   0  0  0  0  0  0  0  0  0  0  0  0
   10.6380   -0.9110   22.5780 C   0  0  0  0  0  0  0  0  0  0  0  0
   11.7980   -1.1580   21.8170 C   0  0  0  0  0  0  0  0  0  0  0  0
   13.0780   -0.5690   22.1180 C   0  0  0  0  0  0  0  0  0  0  0  0
   13.0830    0.6250   22.8480 C   0  0  0  0  0  0  0  0  0  0  0  0
   11.8580    0.9740   23.4710 C   0  0  0  0  0  0  0  0  0  0  0  0
   11.8640    2.0150   24.4330 C   0  0  0  0  0  0  0  0  0  0  0  0
   11.6030    3.4120   23.6320 P   0  0  0  0  0  0  0  0  0  0  0  0
   10.9820    4.8570   24.0670 O   0  0  0  0  0  0  0  0  0  0  0  0
   12.4210    4.1860   22.4960 O   0  0  0  0  0  0  0  0  0  0  0  0
   11.5530    4.7140   24.5200 O   0  0  0  0  0  0  0  0  0  0  0  0
   10.6820    0.2620   23.3490 C   0  0  0  0  0  0  0  0  0  0  0  0
  1  2  2  0
  2 10  1  0
  2  3  1  0
  3  4  1  0
  4  5  2  0
  4  9  1  0
  5  6  1  0
  6  7  2  0
  7  8  1  0
  8  9  2  0
 10 11  1  0
 11 12  2  0
 11 21  1  0
 12 13  1  0
 13 14  2  0
 14 15  1  0
 15 16  1  0
 15 21  2  0
 16 17  1  0
 17 18  2  0
 17 19  1  0
 17 20  1  0
M  END
>  <original SMILES>  (941) 
O=C(Nc1cccnc1)Nc1cccc(CP(=O)(O)O)c1

>  <AutoDock Predicted Affinity>  (941) 
-5.847564

>  <ref_pdb>  (941) 
x0434_0

>  <ref_mols>  (941) 
x0434_0

>  <creator>  (941) 
Will Poole

>  <energy minimised>  (941) 
True

$$$$
WPC1752_minimised.pdb
     RDKit          3D

 24 25  0  0  0  0  0  0  0  0999 V2000
    8.7710    1.3020   20.5460 O   0  0  0  0  0  0  0  0  0  0  0  0
    8.5690    0.1470   20.8710 C   0  0  0  0  0  0  0  0  0  0  0  0
    7.4690   -0.5340   20.4270 N   0  0  0  0  0  0  0  0  0  0  0  0
    6.5110    0.0570   19.5620 C   0  0  0  0  0  0  0  0  0  0  0  0
    5.7300    1.1300   20.0180 C   0  0  0  0  0  0  0  0  0  0  0  0
    4.9170    1.7950   19.0890 C   0  0  0  0  0  0  0  0  0  0  0  0
    4.9280    1.3910   17.7460 C   0  0  0  0  0  0  0  0  0  0  0  0
    5.6570    0.3400   17.3080 N   0  0  0  0  0  0  0  0  0  0  0  0
    6.4360   -0.3010   18.2030 C   0  0  0  0  0  0  0  0  0  0  0  0
    9.4170   -0.5400   21.6980 N   0  0  0  0  0  0  0  0  0  0  0  0
   10.5030    0.1020   22.3260 C   0  0  0  0  0  0  0  0  0  0  0  0
   11.8300   -0.2430   22.0370 C   0  0  0  0  0  0  0  0  0  0  0  0
   12.8710    0.5750   22.5100 C   0  0  0  0  0  0  0  0  0  0  0  0
   12.5810    1.7520   23.2260 C   0  0  0  0  0  0  0  0  0  0  0  0
   11.2480    2.0930   23.5210 C   0  0  0  0  0  0  0  0  0  0  0  0
   10.8520    3.3250   24.3260 C   0  0  0  0  0  0  0  0  0  0  0  0
   11.4100    4.9480   23.8070 S   0  0  0  0  0  0  0  0  0  0  0  0
   11.0990    5.8710   24.8740 O   0  0  0  0  0  0  0  0  0  0  0  0
   12.7540    4.9100   23.2870 O   0  0  0  0  0  0  0  0  0  0  0  0
   10.4520    5.4600   22.5800 N   0  0  0  0  0  0  0  0  0  0  0  0
    9.0250    5.7130   22.8460 C   0  0  0  0  0  0  0  0  0  0  0  0
    8.0700    4.8840   21.9540 C   0  0  0  0  0  0  0  0  0  0  0  0
    8.1990    3.4900   22.2430 O   0  0  0  0  0  0  0  0  0  0  0  0
   10.2280    1.2300   23.1090 C   0  0  0  0  0  0  0  0  0  0  0  0
  1  2  2  0
  2 10  1  0
  2  3  1  0
  3  4  1  0
  4  5  2  0
  4  9  1  0
  5  6  1  0
  6  7  2  0
  7  8  1  0
  8  9  2  0
 10 11  1  0
 11 12  2  0
 11 24  1  0
 12 13  1  0
 13 14  2  0
 14 15  1  0
 15 16  1  0
 15 24  2  0
 16 17  1  0
 17 20  1  0
 17 18  2  0
 17 19  2  0
 20 21  1  0
 21 22  1  0
 22 23  1  0
M  END
>  <original SMILES>  (942) 
O=C(Nc1cccnc1)Nc1cccc(CS(=O)(=O)NCCO)c1

>  <AutoDock Predicted Affinity>  (942) 
-5.520624

>  <ref_pdb>  (942) 
x0434_0

>  <ref_mols>  (942) 
x0434_0

>  <creator>  (942) 
Will Poole

>  <energy minimised>  (942) 
True

$$$$
WPC1871_minimised.pdb
     RDKit          3D

 22 23  0  0  0  0  0  0  0  0999 V2000
    8.9430    1.3450   20.7800 O   0  0  0  0  0  0  0  0  0  0  0  0
    8.6900    0.1930   21.0940 C   0  0  0  0  0  0  0  0  0  0  0  0
    7.5980   -0.4710   20.6060 N   0  0  0  0  0  0  0  0  0  0  0  0
    6.6670    0.1060   19.7030 C   0  0  0  0  0  0  0  0  0  0  0  0
    5.8350    1.1530   20.1290 C   0  0  0  0  0  0  0  0  0  0  0  0
    4.9940    1.7540   19.1810 C   0  0  0  0  0  0  0  0  0  0  0  0
    5.0280    1.3150   17.8480 C   0  0  0  0  0  0  0  0  0  0  0  0
    5.8120    0.2940   17.4360 N   0  0  0  0  0  0  0  0  0  0  0  0
    6.6220   -0.2810   18.3490 C   0  0  0  0  0  0  0  0  0  0  0  0
    9.4770   -0.5230   21.9600 N   0  0  0  0  0  0  0  0  0  0  0  0
   10.5850    0.0740   22.5910 C   0  0  0  0  0  0  0  0  0  0  0  0
   11.8900   -0.1910   22.1530 C   0  0  0  0  0  0  0  0  0  0  0  0
   12.9350    0.6630   22.5450 C   0  0  0  0  0  0  0  0  0  0  0  0
   12.6540    1.8140   23.3020 C   0  0  0  0  0  0  0  0  0  0  0  0
   11.3450    2.0700   23.7500 C   0  0  0  0  0  0  0  0  0  0  0  0
   10.9840    3.3530   24.4880 C   0  0  0  0  0  0  0  0  0  0  0  0
   10.6340    4.8000   23.4800 S   0  0  0  0  0  0  0  0  0  0  0  0
   10.5700    5.9340   24.3780 O   0  0  0  0  0  0  0  0  0  0  0  0
   11.5260    4.8160   22.3440 O   0  0  0  0  0  0  0  0  0  0  0  0
    9.0890    4.6290   22.8930 N   0  0  0  0  0  0  0  0  0  0  0  0
    8.4500    3.3530   22.6830 O   0  0  0  0  0  0  0  0  0  0  0  0
   10.3360    1.1470   23.4550 C   0  0  0  0  0  0  0  0  0  0  0  0
  1  2  2  0
  2 10  1  0
  2  3  1  0
  3  4  1  0
  4  5  2  0
  4  9  1  0
  5  6  1  0
  6  7  2  0
  7  8  1  0
  8  9  2  0
 10 11  1  0
 11 12  2  0
 11 22  1  0
 12 13  1  0
 13 14  2  0
 14 15  1  0
 15 16  1  0
 15 22  2  0
 16 17  1  0
 17 20  1  0
 17 18  2  0
 17 19  2  0
 20 21  1  0
M  END
>  <original SMILES>  (943) 
O=C(Nc1cccnc1)Nc1cccc(CS(=O)(=O)NO)c1

>  <AutoDock Predicted Affinity>  (943) 
-5.7618

>  <ref_pdb>  (943) 
x0434_0

>  <ref_mols>  (943) 
x0434_0

>  <creator>  (943) 
Will Poole

>  <energy minimised>  (943) 
True

$$$$
WPC1409_minimised.pdb
     RDKit          3D

 21 22  0  0  0  0  0  0  0  0999 V2000
    9.1220    0.5320   20.4650 O   0  0  0  0  0  0  0  0  0  0  0  0
    8.5770   -0.3790   21.0820 C   0  0  0  0  0  0  0  0  0  0  0  0
    7.2600   -0.7050   20.8630 N   0  0  0  0  0  0  0  0  0  0  0  0
    6.4870   -0.0510   19.8630 C   0  0  0  0  0  0  0  0  0  0  0  0
    5.3840    0.7580   20.2020 C   0  0  0  0  0  0  0  0  0  0  0  0
    4.7810    1.4560   19.1580 C   0  0  0  0  0  0  0  0  0  0  0  0
    5.2690    1.3680   17.8740 C   0  0  0  0  0  0  0  0  0  0  0  0
    6.2930    0.5430   17.5430 N   0  0  0  0  0  0  0  0  0  0  0  0
    6.9160   -0.1230   18.5250 C   0  0  0  0  0  0  0  0  0  0  0  0
    9.2720   -1.1400   21.9840 N   0  0  0  0  0  0  0  0  0  0  0  0
   10.5690   -0.8020   22.4340 C   0  0  0  0  0  0  0  0  0  0  0  0
   11.7200   -1.1340   21.7940 C   0  0  0  0  0  0  0  0  0  0  0  0
   12.9560   -0.6480   22.0800 C   0  0  0  0  0  0  0  0  0  0  0  0
   13.0180    0.5330   22.9380 C   0  0  0  0  0  0  0  0  0  0  0  0
   11.8470    0.9490   23.5600 C   0  0  0  0  0  0  0  0  0  0  0  0
   11.9000    2.2670   24.4070 C   0  0  0  0  0  0  0  0  0  0  0  0
   11.3090    3.7540   23.4170 S   0  0  0  0  0  0  0  0  0  0  0  0
   12.2540    4.7200   22.9600 O   0  0  0  0  0  0  0  0  0  0  0  0
   10.0170    4.0620   23.3750 O   0  0  0  0  0  0  0  0  0  0  0  0
   11.8130    4.8660   24.2980 O   0  0  0  0  0  0  0  0  0  0  0  0
   10.5990    0.3310   23.3130 C   0  0  0  0  0  0  0  0  0  0  0  0
  1  2  2  0
  2 10  1  0
  2  3  1  0
  3  4  1  0
  4  5  2  0
  4  9  1  0
  5  6  1  0
  6  7  2  0
  7  8  1  0
  8  9  2  0
 10 11  1  0
 11 12  2  0
 11 21  1  0
 12 13  1  0
 13 14  2  0
 14 15  1  0
 15 16  1  0
 15 21  2  0
 16 17  1  0
 17 18  2  0
 17 19  2  0
 17 20  1  0
M  END
>  <original SMILES>  (944) 
O=C(Nc1cccnc1)Nc1cccc(CS(=O)(=O)O)c1

>  <AutoDock Predicted Affinity>  (944) 
-5.788703

>  <ref_pdb>  (944) 
x0434_0

>  <ref_mols>  (944) 
x0434_0

>  <creator>  (944) 
Will Poole

>  <energy minimised>  (944) 
True

$$$$
WPC1238_minimised.pdb
     RDKit          3D

 18 19  0  0  0  0  0  0  0  0999 V2000
    8.8290    0.4760   20.2690 O   0  0  0  0  0  0  0  0  0  0  0  0
    8.0910    0.3660   21.2270 C   0  0  0  0  0  0  0  0  0  0  0  0
    6.7380    0.2130   21.0940 N   0  0  0  0  0  0  0  0  0  0  0  0
    6.0280    0.5760   19.9240 C   0  0  0  0  0  0  0  0  0  0  0  0
    5.0230    1.5440   20.0340 C   0  0  0  0  0  0  0  0  0  0  0  0
    4.4640    2.0410   18.8520 C   0  0  0  0  0  0  0  0  0  0  0  0
    4.9230    1.5670   17.6160 C   0  0  0  0  0  0  0  0  0  0  0  0
    5.8480    0.5880   17.4970 N   0  0  0  0  0  0  0  0  0  0  0  0
    6.4020    0.1230   18.6380 C   0  0  0  0  0  0  0  0  0  0  0  0
    8.5200    0.4630   22.5220 N   0  0  0  0  0  0  0  0  0  0  0  0
    9.7710    1.0120   22.8700 C   0  0  0  0  0  0  0  0  0  0  0  0
   10.9620    0.3350   22.5640 C   0  0  0  0  0  0  0  0  0  0  0  0
   12.1970    0.9620   22.7880 C   0  0  0  0  0  0  0  0  0  0  0  0
   12.2370    2.2710   23.2960 C   0  0  0  0  0  0  0  0  0  0  0  0
   11.0460    2.9520   23.6140 C   0  0  0  0  0  0  0  0  0  0  0  0
   11.0920    4.3740   24.1590 C   0  0  0  0  0  0  0  0  0  0  0  0
    9.8880    5.5180   23.3480 S   0  0  0  0  0  0  0  0  0  0  0  0
    9.8150    2.3070   23.4080 C   0  0  0  0  0  0  0  0  0  0  0  0
  1  2  2  0
  2 10  1  0
  2  3  1  0
  3  4  1  0
  4  5  2  0
  4  9  1  0
  5  6  1  0
  6  7  2  0
  7  8  1  0
  8  9  2  0
 10 11  1  0
 11 12  2  0
 11 18  1  0
 12 13  1  0
 13 14  2  0
 14 15  1  0
 15 16  1  0
 15 18  2  0
 16 17  1  0
M  END
>  <original SMILES>  (945) 
O=C(Nc1cccnc1)Nc1cccc(CS)c1

>  <AutoDock Predicted Affinity>  (945) 
-5.191953

>  <ref_pdb>  (945) 
x0434_0

>  <ref_mols>  (945) 
x0434_0

>  <creator>  (945) 
Will Poole

>  <energy minimised>  (945) 
True

$$$$
WPC2184_minimised.pdb
     RDKit          3D

 24 26  0  0  0  0  0  0  0  0999 V2000
    8.2850   -0.1610   19.7070 O   0  0  0  0  0  0  0  0  0  0  0  0
    7.4820   -0.3730   20.5970 C   0  0  0  0  0  0  0  0  0  0  0  0
    6.1500   -0.1040   20.4630 N   0  0  0  0  0  0  0  0  0  0  0  0
    5.5650    0.5740   19.3690 C   0  0  0  0  0  0  0  0  0  0  0  0
    4.6220    1.5800   19.6120 C   0  0  0  0  0  0  0  0  0  0  0  0
    4.1540    2.3110   18.5120 C   0  0  0  0  0  0  0  0  0  0  0  0
    4.6560    2.0370   17.2320 C   0  0  0  0  0  0  0  0  0  0  0  0
    5.5330    1.0390   16.9850 N   0  0  0  0  0  0  0  0  0  0  0  0
    5.9780    0.3330   18.0410 C   0  0  0  0  0  0  0  0  0  0  0  0
    7.8050   -0.8580   21.8350 N   0  0  0  0  0  0  0  0  0  0  0  0
    9.1230   -0.8990   22.3300 C   0  0  0  0  0  0  0  0  0  0  0  0
   10.1640   -1.4080   21.5440 C   0  0  0  0  0  0  0  0  0  0  0  0
   11.5010   -1.1760   21.8930 C   0  0  0  0  0  0  0  0  0  0  0  0
   11.7900   -0.4640   23.0640 C   0  0  0  0  0  0  0  0  0  0  0  0
   10.7490   -0.0730   23.9210 C   0  0  0  0  0  0  0  0  0  0  0  0
   11.0530    0.6450   25.2120 C   0  0  0  0  0  0  0  0  0  0  0  0
   10.1560    2.2460   25.2660 S   0  0  0  0  0  0  0  0  0  0  0  0
   11.1400    3.2570   24.2780 C   0  0  0  0  0  0  0  0  0  0  0  0
   12.2800    2.9990   23.7490 N   0  0  0  0  0  0  0  0  0  0  0  0
   12.9880    4.0450   22.9830 C   0  0  0  0  0  0  0  0  0  0  0  0
   12.7080    5.4230   23.6100 C   0  0  0  0  0  0  0  0  0  0  0  0
   11.1900    5.6660   23.6420 C   0  0  0  0  0  0  0  0  0  0  0  0
   10.5570    4.5070   24.2670 N   0  0  0  0  0  0  0  0  0  0  0  0
    9.4130   -0.2820   23.5480 C   0  0  0  0  0  0  0  0  0  0  0  0
  1  2  2  0
  2  3  1  0
  2 10  1  0
  3  4  1  0
  4  5  2  0
  4  9  1  0
  5  6  1  0
  6  7  2  0
  7  8  1  0
  8  9  2  0
 10 11  1  0
 11 24  1  0
 11 12  2  0
 12 13  1  0
 13 14  2  0
 14 15  1  0
 15 16  1  0
 15 24  2  0
 16 17  1  0
 17 18  1  0
 18 19  2  0
 18 23  1  0
 19 20  1  0
 20 21  1  0
 21 22  1  0
 22 23  1  0
M  END
>  <original SMILES>  (946) 
O=C(Nc1cccnc1)Nc1cccc(CSC2=NCCCN2)c1

>  <AutoDock Predicted Affinity>  (946) 
-6.24358

>  <ref_pdb>  (946) 
x0434_0

>  <ref_mols>  (946) 
x0434_0

>  <creator>  (946) 
Will Poole

>  <energy minimised>  (946) 
True

$$$$
WPC2185_minimised.pdb
     RDKit          3D

 24 26  0  0  1  0  0  0  0  0999 V2000
    8.6350    0.1180   19.7830 O   0  0  0  0  0  0  0  0  0  0  0  0
    7.9530   -0.3360   20.6790 C   0  0  0  0  0  0  0  0  0  0  0  0
    6.5940   -0.4420   20.5770 N   0  0  0  0  0  0  0  0  0  0  0  0
    5.8580    0.1890   19.5480 C   0  0  0  0  0  0  0  0  0  0  0  0
    4.9380    1.1920   19.8780 C   0  0  0  0  0  0  0  0  0  0  0  0
    4.3580    1.9150   18.8260 C   0  0  0  0  0  0  0  0  0  0  0  0
    4.7240    1.6240   17.5030 C   0  0  0  0  0  0  0  0  0  0  0  0
    5.5900    0.6390   17.1790 N   0  0  0  0  0  0  0  0  0  0  0  0
    6.1540   -0.0500   18.1910 C   0  0  0  0  0  0  0  0  0  0  0  0
    8.4350   -0.6950   21.9050 N   0  0  0  0  0  0  0  0  0  0  0  0
    9.6220   -0.1570   22.4340 C   0  0  0  0  0  0  0  0  0  0  0  0
   10.8890   -0.5980   22.0210 C   0  0  0  0  0  0  0  0  0  0  0  0
   12.0410    0.0570   22.4910 C   0  0  0  0  0  0  0  0  0  0  0  0
   11.9210    1.1570   23.3610 C   0  0  0  0  0  0  0  0  0  0  0  0
   10.6480    1.5940   23.7700 C   0  0  0  0  0  0  0  0  0  0  0  0
   10.4600    2.7970   24.6710 C   0  0  0  0  0  0  0  0  0  0  0  0
    9.6820    4.1940   23.7430 S   0  0  0  0  0  0  0  0  0  0  0  0
   11.0670    5.2020   23.6250 C   0  0  0  0  0  0  0  0  0  0  0  0
   11.7940    5.6200   24.5930 N   0  0  0  0  0  0  0  0  0  0  0  0
   13.1670    6.0530   24.2880 C   0  0  0  0  0  0  0  0  0  0  0  0
   13.7700    5.0710   23.2490 C   0  0  0  0  0  0  0  0  0  0  0  0
   12.9420    5.1140   21.9680 C   0  0  0  0  0  0  0  0  0  0  0  0
   11.5280    5.1660   22.3340 N   0  0  0  0  0  0  0  0  0  0  0  0
    9.5070    0.9260   23.3090 C   0  0  0  0  0  0  0  0  0  0  0  0
  1  2  2  0
  2  3  1  0
  2 10  1  0
  3  4  1  0
  4  5  2  0
  4  9  1  0
  5  6  1  0
  6  7  2  0
  7  8  1  0
  8  9  2  0
 10 11  1  0
 11 24  1  0
 11 12  2  0
 12 13  1  0
 13 14  2  0
 14 15  1  0
 15 16  1  0
 15 24  2  0
 16 17  1  0
 18 17  1  0
 18 19  1  0
 18 23  1  0
 19 20  1  0
 20 21  1  0
 21 22  1  0
 22 23  1  0
M  END
>  <original SMILES>  (947) 
O=C(Nc1cccnc1)Nc1cccc(CSC2NCCCN2)c1

>  <AutoDock Predicted Affinity>  (947) 
-6.36406

>  <ref_pdb>  (947) 
x0434_0

>  <ref_mols>  (947) 
x0434_0

>  <creator>  (947) 
Will Poole

>  <energy minimised>  (947) 
True

$$$$
WPC1880_minimised.pdb
     RDKit          3D

 23 25  0  0  1  0  0  0  0  0999 V2000
    8.3830   -0.3410   19.6750 O   0  0  0  0  0  0  0  0  0  0  0  0
    7.6080   -0.5450   20.5890 C   0  0  0  0  0  0  0  0  0  0  0  0
    6.2620   -0.3320   20.4840 N   0  0  0  0  0  0  0  0  0  0  0  0
    5.6430    0.3620   19.4180 C   0  0  0  0  0  0  0  0  0  0  0  0
    4.7170    1.3720   19.7110 C   0  0  0  0  0  0  0  0  0  0  0  0
    4.2220    2.1300   18.6420 C   0  0  0  0  0  0  0  0  0  0  0  0
    4.6780    1.8740   17.3410 C   0  0  0  0  0  0  0  0  0  0  0  0
    5.5410    0.8760   17.0470 N   0  0  0  0  0  0  0  0  0  0  0  0
    6.0160    0.1460   18.0750 C   0  0  0  0  0  0  0  0  0  0  0  0
    7.9810   -0.9460   21.8420 N   0  0  0  0  0  0  0  0  0  0  0  0
    9.2960   -0.8080   22.3200 C   0  0  0  0  0  0  0  0  0  0  0  0
   10.3780   -1.3930   21.6500 C   0  0  0  0  0  0  0  0  0  0  0  0
   11.6940   -1.0390   21.9850 C   0  0  0  0  0  0  0  0  0  0  0  0
   11.9200   -0.1100   23.0120 C   0  0  0  0  0  0  0  0  0  0  0  0
   10.8350    0.4090   23.7380 C   0  0  0  0  0  0  0  0  0  0  0  0
   11.0540    1.3760   24.8750 C   0  0  0  0  0  0  0  0  0  0  0  0
   10.2460    2.9960   24.5430 S   0  0  0  0  0  0  0  0  0  0  0  0
   11.5170    3.8790   23.7750 C   0  0  2  0  0  0  0  0  0  0  0  0
   12.6440    3.4170   23.3720 N   0  0  0  0  0  0  0  0  0  0  0  0
   13.5240    4.4860   22.8740 C   0  0  0  0  0  0  0  0  0  0  0  0
   13.1000    5.7480   23.6430 C   0  0  0  0  0  0  0  0  0  0  0  0
   11.2940    5.5880   23.8550 S   0  0  0  0  0  0  0  0  0  0  0  0
    9.5240    0.0600   23.3900 C   0  0  0  0  0  0  0  0  0  0  0  0
  1  2  2  0
  2  3  1  0
  2 10  1  0
  3  4  1  0
  4  5  2  0
  4  9  1  0
  5  6  1  0
  6  7  2  0
  7  8  1  0
  8  9  2  0
 10 11  1  0
 11 23  1  0
 11 12  2  0
 12 13  1  0
 13 14  2  0
 14 15  1  0
 15 16  1  0
 15 23  2  0
 16 17  1  0
 18 17  1  1
 18 19  1  0
 18 22  1  0
 19 20  1  0
 20 21  1  0
 21 22  1  0
M  END
>  <original SMILES>  (948) 
O=C(Nc1cccnc1)Nc1cccc(CSC2NCCS2)c1

>  <AutoDock Predicted Affinity>  (948) 
-5.889745

>  <ref_pdb>  (948) 
x0434_0

>  <ref_mols>  (948) 
x0434_0

>  <creator>  (948) 
Will Poole

>  <energy minimised>  (948) 
True

$$$$
WPC1070_minimised.pdb
     RDKit          3D

 23 25  0  0  0  0  0  0  0  0999 V2000
    8.4130   -0.3080   19.6100 O   0  0  0  0  0  0  0  0  0  0  0  0
    7.6360   -0.5450   20.5140 C   0  0  0  0  0  0  0  0  0  0  0  0
    6.2830   -0.3880   20.3990 N   0  0  0  0  0  0  0  0  0  0  0  0
    5.6550    0.3240   19.3530 C   0  0  0  0  0  0  0  0  0  0  0  0
    4.7300    1.3270   19.6710 C   0  0  0  0  0  0  0  0  0  0  0  0
    4.2270    2.1050   18.6210 C   0  0  0  0  0  0  0  0  0  0  0  0
    4.6750    1.8740   17.3120 C   0  0  0  0  0  0  0  0  0  0  0  0
    5.5440    0.8870   16.9960 N   0  0  0  0  0  0  0  0  0  0  0  0
    6.0260    0.1390   18.0060 C   0  0  0  0  0  0  0  0  0  0  0  0
    8.0040   -0.9080   21.7750 N   0  0  0  0  0  0  0  0  0  0  0  0
    9.2520   -0.5570   22.3150 C   0  0  0  0  0  0  0  0  0  0  0  0
   10.4500   -1.0980   21.8260 C   0  0  0  0  0  0  0  0  0  0  0  0
   11.6800   -0.5960   22.2810 C   0  0  0  0  0  0  0  0  0  0  0  0
   11.7030    0.4430   23.2280 C   0  0  0  0  0  0  0  0  0  0  0  0
   10.4970    0.9710   23.7250 C   0  0  0  0  0  0  0  0  0  0  0  0
   10.4740    2.1000   24.7310 C   0  0  0  0  0  0  0  0  0  0  0  0
   10.0450    3.7110   23.9510 S   0  0  0  0  0  0  0  0  0  0  0  0
   11.6360    4.2600   23.4780 C   0  0  0  0  0  0  0  0  0  0  0  0
   11.9230    5.5750   23.6620 C   0  0  0  0  0  0  0  0  0  0  0  0
   13.2760    5.6210   23.4060 N   0  0  0  0  0  0  0  0  0  0  0  0
   13.7670    4.3860   23.1360 N   0  0  0  0  0  0  0  0  0  0  0  0
   12.7720    3.5510   23.2160 N   0  0  0  0  0  0  0  0  0  0  0  0
    9.2760    0.4630   23.2680 C   0  0  0  0  0  0  0  0  0  0  0  0
  1  2  2  0
  2  3  1  0
  2 10  1  0
  3  4  1  0
  4  5  2  0
  4  9  1  0
  5  6  1  0
  6  7  2  0
  7  8  1  0
  8  9  2  0
 10 11  1  0
 11 23  1  0
 11 12  2  0
 12 13  1  0
 13 14  2  0
 14 15  1  0
 15 16  1  0
 15 23  2  0
 16 17  1  0
 17 18  1  0
 18 19  2  0
 18 22  1  0
 19 20  1  0
 20 21  1  0
 21 22  2  0
M  END
>  <original SMILES>  (949) 
O=C(Nc1cccnc1)Nc1cccc(CSc2c[nH]nn2)c1

>  <AutoDock Predicted Affinity>  (949) 
-6.26131

>  <ref_pdb>  (949) 
x0434_0

>  <ref_mols>  (949) 
x0434_0

>  <creator>  (949) 
Will Poole

>  <energy minimised>  (949) 
True

$$$$
WPC2427_minimised.pdb
     RDKit          3D

 24 26  0  0  0  0  0  0  0  0999 V2000
    8.5220    0.2570   19.8000 O   0  0  0  0  0  0  0  0  0  0  0  0
    7.8030   -0.0940   20.7150 C   0  0  0  0  0  0  0  0  0  0  0  0
    6.4460   -0.1840   20.5940 N   0  0  0  0  0  0  0  0  0  0  0  0
    5.7260    0.3660   19.5110 C   0  0  0  0  0  0  0  0  0  0  0  0
    4.7510    1.3360   19.7690 C   0  0  0  0  0  0  0  0  0  0  0  0
    4.1740    1.9830   18.6700 C   0  0  0  0  0  0  0  0  0  0  0  0
    4.5960    1.6540   17.3750 C   0  0  0  0  0  0  0  0  0  0  0  0
    5.5080    0.6900   17.1150 N   0  0  0  0  0  0  0  0  0  0  0  0
    6.0700    0.0750   18.1740 C   0  0  0  0  0  0  0  0  0  0  0  0
    8.2420   -0.3700   21.9770 N   0  0  0  0  0  0  0  0  0  0  0  0
    9.5220   -0.0370   22.4550 C   0  0  0  0  0  0  0  0  0  0  0  0
   10.6780   -0.5260   21.8270 C   0  0  0  0  0  0  0  0  0  0  0  0
   11.9440   -0.0980   22.2530 C   0  0  0  0  0  0  0  0  0  0  0  0
   12.0490    0.8110   23.3180 C   0  0  0  0  0  0  0  0  0  0  0  0
   10.8900    1.2800   23.9650 C   0  0  0  0  0  0  0  0  0  0  0  0
   11.0000    2.1930   25.1660 C   0  0  0  0  0  0  0  0  0  0  0  0
   10.5580    3.9530   24.8590 S   0  0  0  0  0  0  0  0  0  0  0  0
   11.7050    4.3570   23.5780 C   0  0  0  0  0  0  0  0  0  0  0  0
   12.9960    4.8230   23.8610 C   0  0  0  0  0  0  0  0  0  0  0  0
   13.9250    4.9720   22.8180 C   0  0  0  0  0  0  0  0  0  0  0  0
   13.5350    4.7690   21.4920 C   0  0  0  0  0  0  0  0  0  0  0  0
   12.2200    4.3780   21.2160 C   0  0  0  0  0  0  0  0  0  0  0  0
   11.3220    4.1270   22.2580 C   0  0  0  0  0  0  0  0  0  0  0  0
    9.6290    0.8550   23.5280 C   0  0  0  0  0  0  0  0  0  0  0  0
  1  2  2  0
  2  3  1  0
  2 10  1  0
  3  4  1  0
  4  5  2  0
  4  9  1  0
  5  6  1  0
  6  7  2  0
  7  8  1  0
  8  9  2  0
 10 11  1  0
 11 24  1  0
 11 12  2  0
 12 13  1  0
 13 14  2  0
 14 15  1  0
 15 16  1  0
 15 24  2  0
 16 17  1  0
 17 18  1  0
 18 19  2  0
 18 23  1  0
 19 20  1  0
 20 21  2  0
 21 22  1  0
 22 23  2  0
M  END
>  <original SMILES>  (950) 
O=C(Nc1cccnc1)Nc1cccc(CSc2ccccc2)c1

>  <AutoDock Predicted Affinity>  (950) 
-5.45759

>  <ref_pdb>  (950) 
x0434_0

>  <ref_mols>  (950) 
x0434_0

>  <creator>  (950) 
Will Poole

>  <energy minimised>  (950) 
True

$$$$
WPC2395_minimised.pdb
     RDKit          3D

 24 26  0  0  0  0  0  0  0  0999 V2000
    8.3590   -0.2710   19.6400 O   0  0  0  0  0  0  0  0  0  0  0  0
    7.5900   -0.3730   20.5760 C   0  0  0  0  0  0  0  0  0  0  0  0
    6.2560   -0.0950   20.4750 N   0  0  0  0  0  0  0  0  0  0  0  0
    5.6400    0.5540   19.3790 C   0  0  0  0  0  0  0  0  0  0  0  0
    4.7070    1.5670   19.6310 C   0  0  0  0  0  0  0  0  0  0  0  0
    4.2080    2.2790   18.5330 C   0  0  0  0  0  0  0  0  0  0  0  0
    4.6730    1.9830   17.2440 C   0  0  0  0  0  0  0  0  0  0  0  0
    5.5380    0.9760   16.9900 N   0  0  0  0  0  0  0  0  0  0  0  0
    6.0120    0.2850   18.0450 C   0  0  0  0  0  0  0  0  0  0  0  0
    7.9590   -0.7190   21.8470 N   0  0  0  0  0  0  0  0  0  0  0  0
    9.2880   -0.6690   22.3060 C   0  0  0  0  0  0  0  0  0  0  0  0
   10.3210   -1.2980   21.5980 C   0  0  0  0  0  0  0  0  0  0  0  0
   11.6620   -1.0430   21.9230 C   0  0  0  0  0  0  0  0  0  0  0  0
   11.9610   -0.1810   22.9870 C   0  0  0  0  0  0  0  0  0  0  0  0
   10.9240    0.3700   23.7590 C   0  0  0  0  0  0  0  0  0  0  0  0
   11.2370    1.2250   24.9640 C   0  0  0  0  0  0  0  0  0  0  0  0
   10.4140    2.8680   24.8860 S   0  0  0  0  0  0  0  0  0  0  0  0
   11.6080    3.9120   24.1000 C   0  0  0  0  0  0  0  0  0  0  0  0
   11.6830    5.2520   24.5090 C   0  0  0  0  0  0  0  0  0  0  0  0
   12.6590    6.0820   23.9480 C   0  0  0  0  0  0  0  0  0  0  0  0
   13.4900    5.5330   22.9620 C   0  0  0  0  0  0  0  0  0  0  0  0
   13.3670    4.1780   22.6390 C   0  0  0  0  0  0  0  0  0  0  0  0
   12.4650    3.3700   23.2200 N   0  0  0  0  0  0  0  0  0  0  0  0
    9.5870    0.1310   23.4110 C   0  0  0  0  0  0  0  0  0  0  0  0
  1  2  2  0
  2  3  1  0
  2 10  1  0
  3  4  1  0
  4  5  2  0
  4  9  1  0
  5  6  1  0
  6  7  2  0
  7  8  1  0
  8  9  2  0
 10 11  1  0
 11 24  1  0
 11 12  2  0
 12 13  1  0
 13 14  2  0
 14 15  1  0
 15 16  1  0
 15 24  2  0
 16 17  1  0
 17 18  1  0
 18 19  2  0
 18 23  1  0
 19 20  1  0
 20 21  2  0
 21 22  1  0
 22 23  2  0
M  END
>  <original SMILES>  (951) 
O=C(Nc1cccnc1)Nc1cccc(CSc2ccccn2)c1

>  <AutoDock Predicted Affinity>  (951) 
-5.902545

>  <ref_pdb>  (951) 
x0434_0

>  <ref_mols>  (951) 
x0434_0

>  <creator>  (951) 
Will Poole

>  <energy minimised>  (951) 
True

$$$$
WPC1746_minimised.pdb
     RDKit          3D

 24 26  0  0  0  0  0  0  0  0999 V2000
    8.5040    0.2830   19.8240 O   0  0  0  0  0  0  0  0  0  0  0  0
    7.7880   -0.0650   20.7420 C   0  0  0  0  0  0  0  0  0  0  0  0
    6.4280   -0.1200   20.6330 N   0  0  0  0  0  0  0  0  0  0  0  0
    5.7110    0.4230   19.5430 C   0  0  0  0  0  0  0  0  0  0  0  0
    4.7340    1.3950   19.7890 C   0  0  0  0  0  0  0  0  0  0  0  0
    4.1580    2.0280   18.6830 C   0  0  0  0  0  0  0  0  0  0  0  0
    4.5830    1.6870   17.3910 C   0  0  0  0  0  0  0  0  0  0  0  0
    5.4940    0.7200   17.1430 N   0  0  0  0  0  0  0  0  0  0  0  0
    6.0560    0.1170   18.2090 C   0  0  0  0  0  0  0  0  0  0  0  0
    8.2440   -0.3880   21.9880 N   0  0  0  0  0  0  0  0  0  0  0  0
    9.5670   -0.1710   22.4160 C   0  0  0  0  0  0  0  0  0  0  0  0
   10.6450   -0.7230   21.7100 C   0  0  0  0  0  0  0  0  0  0  0  0
   11.9630   -0.3920   22.0560 C   0  0  0  0  0  0  0  0  0  0  0  0
   12.1980    0.4820   23.1270 C   0  0  0  0  0  0  0  0  0  0  0  0
   11.1170    0.9980   23.8660 C   0  0  0  0  0  0  0  0  0  0  0  0
   11.3730    1.8550   25.0820 C   0  0  0  0  0  0  0  0  0  0  0  0
   10.8400    3.6130   24.9250 S   0  0  0  0  0  0  0  0  0  0  0  0
   11.8290    4.1870   23.5710 C   0  0  0  0  0  0  0  0  0  0  0  0
   13.0160    4.9130   23.7450 C   0  0  0  0  0  0  0  0  0  0  0  0
   13.7480    5.2920   22.6070 C   0  0  0  0  0  0  0  0  0  0  0  0
   13.3350    5.0530   21.3580 N   0  0  0  0  0  0  0  0  0  0  0  0
   12.1830    4.3830   21.2060 C   0  0  0  0  0  0  0  0  0  0  0  0
   11.4150    3.9130   22.2710 C   0  0  0  0  0  0  0  0  0  0  0  0
    9.8020    0.6750   23.5060 C   0  0  0  0  0  0  0  0  0  0  0  0
  1  2  2  0
  2  3  1  0
  2 10  1  0
  3  4  1  0
  4  5  2  0
  4  9  1  0
  5  6  1  0
  6  7  2  0
  7  8  1  0
  8  9  2  0
 10 11  1  0
 11 24  1  0
 11 12  2  0
 12 13  1  0
 13 14  2  0
 14 15  1  0
 15 16  1  0
 15 24  2  0
 16 17  1  0
 17 18  1  0
 18 19  2  0
 18 23  1  0
 19 20  1  0
 20 21  2  0
 21 22  1  0
 22 23  2  0
M  END
>  <original SMILES>  (952) 
O=C(Nc1cccnc1)Nc1cccc(CSc2ccncc2)c1

>  <AutoDock Predicted Affinity>  (952) 
-5.14744

>  <ref_pdb>  (952) 
x0434_0

>  <ref_mols>  (952) 
x0434_0

>  <creator>  (952) 
Will Poole

>  <energy minimised>  (952) 
True

$$$$
WPC1708_minimised.pdb
     RDKit          3D

 23 25  0  0  0  0  0  0  0  0999 V2000
    8.6050    0.0250   19.6960 O   0  0  0  0  0  0  0  0  0  0  0  0
    7.9020   -0.3750   20.6010 C   0  0  0  0  0  0  0  0  0  0  0  0
    6.5390   -0.4160   20.5070 N   0  0  0  0  0  0  0  0  0  0  0  0
    5.8230    0.2450   19.4820 C   0  0  0  0  0  0  0  0  0  0  0  0
    4.9020    1.2440   19.8210 C   0  0  0  0  0  0  0  0  0  0  0  0
    4.3450    1.9980   18.7790 C   0  0  0  0  0  0  0  0  0  0  0  0
    4.7400    1.7490   17.4560 C   0  0  0  0  0  0  0  0  0  0  0  0
    5.6020    0.7630   17.1210 N   0  0  0  0  0  0  0  0  0  0  0  0
    6.1360    0.0380   18.1230 C   0  0  0  0  0  0  0  0  0  0  0  0
    8.3690   -0.7250   21.8340 N   0  0  0  0  0  0  0  0  0  0  0  0
    9.5620   -0.1940   22.3540 C   0  0  0  0  0  0  0  0  0  0  0  0
   10.8230   -0.6680   21.9620 C   0  0  0  0  0  0  0  0  0  0  0  0
   11.9840   -0.0170   22.4170 C   0  0  0  0  0  0  0  0  0  0  0  0
   11.8780    1.1100   23.2530 C   0  0  0  0  0  0  0  0  0  0  0  0
   10.6100    1.5820   23.6380 C   0  0  0  0  0  0  0  0  0  0  0  0
   10.4390    2.8100   24.5050 C   0  0  0  0  0  0  0  0  0  0  0  0
    9.5500    4.1510   23.5970 S   0  0  0  0  0  0  0  0  0  0  0  0
   10.8470    5.3060   23.4760 C   0  0  0  0  0  0  0  0  0  0  0  0
   11.8720    4.9710   22.6400 N   0  0  0  0  0  0  0  0  0  0  0  0
   13.0030    5.5580   23.1730 C   0  0  0  0  0  0  0  0  0  0  0  0
   12.5890    6.1630   24.3390 C   0  0  0  0  0  0  0  0  0  0  0  0
   11.2570    5.9250   24.5590 N   0  0  0  0  0  0  0  0  0  0  0  0
    9.4600    0.9190   23.1930 C   0  0  0  0  0  0  0  0  0  0  0  0
  1  2  2  0
  2  3  1  0
  2 10  1  0
  3  4  1  0
  4  5  2  0
  4  9  1  0
  5  6  1  0
  6  7  2  0
  7  8  1  0
  8  9  2  0
 10 11  1  0
 11 23  1  0
 11 12  2  0
 12 13  1  0
 13 14  2  0
 14 15  1  0
 15 16  1  0
 15 23  2  0
 16 17  1  0
 17 18  1  0
 18 19  1  0
 18 22  2  0
 19 20  1  0
 20 21  2  0
 21 22  1  0
M  END
>  <original SMILES>  (953) 
O=C(Nc1cccnc1)Nc1cccc(CSc2ncc[nH]2)c1

>  <AutoDock Predicted Affinity>  (953) 
-6.126947

>  <ref_pdb>  (953) 
x0434_0

>  <ref_mols>  (953) 
x0434_0

>  <creator>  (953) 
Will Poole

>  <energy minimised>  (953) 
True

$$$$
WPC2371_minimised.pdb
     RDKit          3D

 24 26  0  0  0  0  0  0  0  0999 V2000
    8.4960   -0.0910   19.7270 O   0  0  0  0  0  0  0  0  0  0  0  0
    7.7680   -0.2300   20.6880 C   0  0  0  0  0  0  0  0  0  0  0  0
    6.4070   -0.1530   20.6030 N   0  0  0  0  0  0  0  0  0  0  0  0
    5.7180    0.4210   19.5100 C   0  0  0  0  0  0  0  0  0  0  0  0
    4.7780    1.4270   19.7640 C   0  0  0  0  0  0  0  0  0  0  0  0
    4.2240    2.0910   18.6630 C   0  0  0  0  0  0  0  0  0  0  0  0
    4.6360    1.7470   17.3680 C   0  0  0  0  0  0  0  0  0  0  0  0
    5.5110    0.7480   17.1130 N   0  0  0  0  0  0  0  0  0  0  0  0
    6.0470    0.1120   18.1730 C   0  0  0  0  0  0  0  0  0  0  0  0
    8.2080   -0.4050   21.9690 N   0  0  0  0  0  0  0  0  0  0  0  0
    9.5120   -0.1000   22.4060 C   0  0  0  0  0  0  0  0  0  0  0  0
   10.6450   -0.6460   21.7820 C   0  0  0  0  0  0  0  0  0  0  0  0
   11.9310   -0.2370   22.1740 C   0  0  0  0  0  0  0  0  0  0  0  0
   12.0780    0.7150   23.1960 C   0  0  0  0  0  0  0  0  0  0  0  0
   10.9410    1.2410   23.8380 C   0  0  0  0  0  0  0  0  0  0  0  0
   11.0810    2.2010   24.9970 C   0  0  0  0  0  0  0  0  0  0  0  0
   10.6780    3.9490   24.5890 S   0  0  0  0  0  0  0  0  0  0  0  0
   11.9950    4.3570   23.4770 C   0  0  0  0  0  0  0  0  0  0  0  0
   11.6760    4.4360   22.1930 N   0  0  0  0  0  0  0  0  0  0  0  0
   12.6480    4.6930   21.3250 C   0  0  0  0  0  0  0  0  0  0  0  0
   13.9630    4.8650   21.7340 C   0  0  0  0  0  0  0  0  0  0  0  0
   14.2130    4.7200   23.0920 C   0  0  0  0  0  0  0  0  0  0  0  0
   13.2310    4.4900   23.9740 N   0  0  0  0  0  0  0  0  0  0  0  0
    9.6620    0.8300   23.4400 C   0  0  0  0  0  0  0  0  0  0  0  0
  1  2  2  0
  2  3  1  0
  2 10  1  0
  3  4  1  0
  4  5  2  0
  4  9  1  0
  5  6  1  0
  6  7  2  0
  7  8  1  0
  8  9  2  0
 10 11  1  0
 11 24  1  0
 11 12  2  0
 12 13  1  0
 13 14  2  0
 14 15  1  0
 15 16  1  0
 15 24  2  0
 16 17  1  0
 17 18  1  0
 18 19  2  0
 18 23  1  0
 19 20  1  0
 20 21  2  0
 21 22  1  0
 22 23  2  0
M  END
>  <original SMILES>  (954) 
O=C(Nc1cccnc1)Nc1cccc(CSc2ncccn2)c1

>  <AutoDock Predicted Affinity>  (954) 
-5.5497

>  <ref_pdb>  (954) 
x0434_0

>  <ref_mols>  (954) 
x0434_0

>  <creator>  (954) 
Will Poole

>  <energy minimised>  (954) 
True

$$$$
WPC2454_minimised.pdb
     RDKit          3D

 23 25  0  0  0  0  0  0  0  0999 V2000
    8.6350    0.2800   19.8880 O   0  0  0  0  0  0  0  0  0  0  0  0
    7.9390   -0.1700   20.7760 C   0  0  0  0  0  0  0  0  0  0  0  0
    6.5850   -0.3020   20.6460 N   0  0  0  0  0  0  0  0  0  0  0  0
    5.8550    0.2880   19.5890 C   0  0  0  0  0  0  0  0  0  0  0  0
    4.9060    1.2760   19.8790 C   0  0  0  0  0  0  0  0  0  0  0  0
    4.3280    1.9600   18.8020 C   0  0  0  0  0  0  0  0  0  0  0  0
    4.7220    1.6500   17.4920 C   0  0  0  0  0  0  0  0  0  0  0  0
    5.6120    0.6740   17.2030 N   0  0  0  0  0  0  0  0  0  0  0  0
    6.1760    0.0230   18.2410 C   0  0  0  0  0  0  0  0  0  0  0  0
    8.4070   -0.5110   22.0120 N   0  0  0  0  0  0  0  0  0  0  0  0
    9.6370   -0.0500   22.5190 C   0  0  0  0  0  0  0  0  0  0  0  0
   10.8600   -0.5360   22.0320 C   0  0  0  0  0  0  0  0  0  0  0  0
   12.0650    0.0400   22.4720 C   0  0  0  0  0  0  0  0  0  0  0  0
   12.0410    1.1050   23.3890 C   0  0  0  0  0  0  0  0  0  0  0  0
   10.8120    1.5860   23.8780 C   0  0  0  0  0  0  0  0  0  0  0  0
   10.7480    2.7450   24.8500 C   0  0  0  0  0  0  0  0  0  0  0  0
   10.3610    4.3280   24.0050 S   0  0  0  0  0  0  0  0  0  0  0  0
   11.9080    4.6510   23.2500 C   0  0  0  0  0  0  0  0  0  0  0  0
   11.9970    4.9940   21.9450 N   0  0  0  0  0  0  0  0  0  0  0  0
   13.3010    5.2440   21.6580 N   0  0  0  0  0  0  0  0  0  0  0  0
   13.9100    4.9890   22.8100 C   0  0  0  0  0  0  0  0  0  0  0  0
   13.0700    4.6340   23.8470 N   0  0  0  0  0  0  0  0  0  0  0  0
    9.6160    1.0000   23.4430 C   0  0  0  0  0  0  0  0  0  0  0  0
  1  2  2  0
  2  3  1  0
  2 10  1  0
  3  4  1  0
  4  5  2  0
  4  9  1  0
  5  6  1  0
  6  7  2  0
  7  8  1  0
  8  9  2  0
 10 11  1  0
 11 23  1  0
 11 12  2  0
 12 13  1  0
 13 14  2  0
 14 15  1  0
 15 16  1  0
 15 23  2  0
 16 17  1  0
 17 18  1  0
 18 19  1  0
 18 22  2  0
 19 20  1  0
 20 21  2  0
 21 22  1  0
M  END
>  <original SMILES>  (955) 
O=C(Nc1cccnc1)Nc1cccc(CSc2ncn[nH]2)c1

>  <AutoDock Predicted Affinity>  (955) 
-6.266605

>  <ref_pdb>  (955) 
x0434_0

>  <ref_mols>  (955) 
x0434_0

>  <creator>  (955) 
Will Poole

>  <energy minimised>  (955) 
True

$$$$
WPC1664_minimised.pdb
     RDKit          3D

 23 25  0  0  0  0  0  0  0  0999 V2000
    8.6410    0.2960   19.8940 O   0  0  0  0  0  0  0  0  0  0  0  0
    7.9660   -0.1920   20.7770 C   0  0  0  0  0  0  0  0  0  0  0  0
    6.6150   -0.3610   20.6530 N   0  0  0  0  0  0  0  0  0  0  0  0
    5.8680    0.2320   19.6070 C   0  0  0  0  0  0  0  0  0  0  0  0
    4.9200    1.2150   19.9150 C   0  0  0  0  0  0  0  0  0  0  0  0
    4.3350    1.9120   18.8490 C   0  0  0  0  0  0  0  0  0  0  0  0
    4.7190    1.6130   17.5330 C   0  0  0  0  0  0  0  0  0  0  0  0
    5.6080    0.6410   17.2280 N   0  0  0  0  0  0  0  0  0  0  0  0
    6.1810   -0.0180   18.2550 C   0  0  0  0  0  0  0  0  0  0  0  0
    8.4570   -0.5370   22.0030 N   0  0  0  0  0  0  0  0  0  0  0  0
    9.6690   -0.0280   22.5070 C   0  0  0  0  0  0  0  0  0  0  0  0
   10.9120   -0.4730   22.0300 C   0  0  0  0  0  0  0  0  0  0  0  0
   12.0920    0.1530   22.4680 C   0  0  0  0  0  0  0  0  0  0  0  0
   12.0260    1.2290   23.3710 C   0  0  0  0  0  0  0  0  0  0  0  0
   10.7780    1.6670   23.8500 C   0  0  0  0  0  0  0  0  0  0  0  0
   10.6590    2.8230   24.8210 C   0  0  0  0  0  0  0  0  0  0  0  0
   10.1950    4.3900   23.9790 S   0  0  0  0  0  0  0  0  0  0  0  0
   11.7580    4.8690   23.3480 C   0  0  0  0  0  0  0  0  0  0  0  0
   12.0000    4.8900   22.0180 N   0  0  0  0  0  0  0  0  0  0  0  0
   13.3340    5.0510   21.8460 N   0  0  0  0  0  0  0  0  0  0  0  0
   13.8340    5.0250   23.0530 N   0  0  0  0  0  0  0  0  0  0  0  0
   12.8760    4.8720   24.0240 N   0  0  0  0  0  0  0  0  0  0  0  0
    9.6060    1.0310   23.4190 C   0  0  0  0  0  0  0  0  0  0  0  0
  1  2  2  0
  2  3  1  0
  2 10  1  0
  3  4  1  0
  4  5  2  0
  4  9  1  0
  5  6  1  0
  6  7  2  0
  7  8  1  0
  8  9  2  0
 10 11  1  0
 11 23  1  0
 11 12  2  0
 12 13  1  0
 13 14  2  0
 14 15  1  0
 15 16  1  0
 15 23  2  0
 16 17  1  0
 17 18  1  0
 18 19  1  0
 18 22  2  0
 19 20  1  0
 20 21  2  0
 21 22  1  0
M  END
>  <original SMILES>  (956) 
O=C(Nc1cccnc1)Nc1cccc(CSc2nnn[nH]2)c1

>  <AutoDock Predicted Affinity>  (956) 
-6.41486

>  <ref_pdb>  (956) 
x0434_0

>  <ref_mols>  (956) 
x0434_0

>  <creator>  (956) 
Will Poole

>  <energy minimised>  (956) 
True

$$$$
WPC1683_minimised.pdb
     RDKit          3D

 24 25  0  0  1  0  0  0  0  0999 V2000
    8.4310   -0.2010   19.6800 O   0  0  0  0  0  0  0  0  0  0  0  0
    7.7470   -0.1850   20.6820 C   0  0  0  0  0  0  0  0  0  0  0  0
    6.4050    0.0700   20.6490 N   0  0  0  0  0  0  0  0  0  0  0  0
    5.7050    0.5960   19.5390 C   0  0  0  0  0  0  0  0  0  0  0  0
    4.7710    1.6140   19.7600 C   0  0  0  0  0  0  0  0  0  0  0  0
    4.1750    2.2070   18.6400 C   0  0  0  0  0  0  0  0  0  0  0  0
    4.5420    1.7820   17.3550 C   0  0  0  0  0  0  0  0  0  0  0  0
    5.4000    0.7610   17.1320 N   0  0  0  0  0  0  0  0  0  0  0  0
    5.9800    0.1960   18.2110 C   0  0  0  0  0  0  0  0  0  0  0  0
    8.2140   -0.3770   21.9490 N   0  0  0  0  0  0  0  0  0  0  0  0
    9.5730   -0.3610   22.3010 C   0  0  0  0  0  0  0  0  0  0  0  0
   10.3030   -1.5540   22.3870 C   0  0  0  0  0  0  0  0  0  0  0  0
   11.6640   -1.5100   22.7220 C   0  0  0  0  0  0  0  0  0  0  0  0
   12.2810   -0.2730   22.9670 C   0  0  0  0  0  0  0  0  0  0  0  0
   11.5460    0.9220   22.9150 C   0  0  0  0  0  0  0  0  0  0  0  0
   12.1940    2.2520   23.2840 C   0  0  0  0  0  0  0  0  0  0  0  0
   13.3550    2.8470   21.9870 S   0  0  2  0  0  0  0  0  0  0  0  0
   14.6210    1.8620   22.5550 O   0  0  0  0  0  0  0  0  0  0  0  0
   14.1220    4.3150   22.7880 C   0  0  0  0  0  0  0  0  0  0  0  0
   13.2300    5.5690   22.7490 C   0  0  2  0  0  0  0  0  0  0  0  0
   14.0530    6.7320   22.5650 O   0  0  0  0  0  0  0  0  0  0  0  0
   12.3050    5.7400   23.9910 C   0  0  0  0  0  0  0  0  0  0  0  0
   13.0070    6.1460   25.1740 O   0  0  0  0  0  0  0  0  0  0  0  0
   10.1860    0.8690   22.5710 C   0  0  0  0  0  0  0  0  0  0  0  0
  1  2  2  0
  2 10  1  0
  2  3  1  0
  3  4  1  0
  4  5  2  0
  4  9  1  0
  5  6  1  0
  6  7  2  0
  7  8  1  0
  8  9  2  0
 10 11  1  0
 11 12  2  0
 11 24  1  0
 12 13  1  0
 13 14  2  0
 14 15  1  0
 15 16  1  0
 15 24  2  0
 17 16  1  0
 17 19  1  0
 17 18  1  1
 19 20  1  0
 20 22  1  0
 20 21  1  1
 22 23  1  0
M  END
>  <original SMILES>  (957) 
O=C(Nc1cccnc1)Nc1cccc(C[SH](O)CC(O)CO)c1

>  <AutoDock Predicted Affinity>  (957) 
-5.203265

>  <ref_pdb>  (957) 
x0434_0

>  <ref_mols>  (957) 
x0434_0

>  <creator>  (957) 
Will Poole

>  <energy minimised>  (957) 
True

$$$$
WPC1858_minimised.pdb
     RDKit          3D

 24 26  0  0  0  0  0  0  0  0999 V2000
    8.6930   -0.0710   19.8930 O   0  0  0  0  0  0  0  0  0  0  0  0
    8.0050   -0.2960   20.8670 C   0  0  0  0  0  0  0  0  0  0  0  0
    6.6410   -0.3190   20.7910 N   0  0  0  0  0  0  0  0  0  0  0  0
    5.9150    0.2250   19.7060 C   0  0  0  0  0  0  0  0  0  0  0  0
    4.9890    1.2460   19.9550 C   0  0  0  0  0  0  0  0  0  0  0  0
    4.3820    1.8610   18.8530 C   0  0  0  0  0  0  0  0  0  0  0  0
    4.7280    1.4510   17.5570 C   0  0  0  0  0  0  0  0  0  0  0  0
    5.5940    0.4440   17.3060 N   0  0  0  0  0  0  0  0  0  0  0  0
    6.1890   -0.1360   18.3700 C   0  0  0  0  0  0  0  0  0  0  0  0
    8.4730   -0.4860   22.1360 N   0  0  0  0  0  0  0  0  0  0  0  0
    9.6830    0.0550   22.6080 C   0  0  0  0  0  0  0  0  0  0  0  0
   10.9320   -0.3490   22.1140 C   0  0  0  0  0  0  0  0  0  0  0  0
   12.0960    0.3100   22.5460 C   0  0  0  0  0  0  0  0  0  0  0  0
   12.0010    1.3860   23.4470 C   0  0  0  0  0  0  0  0  0  0  0  0
   10.7460    1.8000   23.9340 C   0  0  0  0  0  0  0  0  0  0  0  0
   10.6010    2.9760   24.8970 C   0  0  0  0  0  0  0  0  0  0  0  0
   10.2200    4.5930   24.0810 S   0  0  2  0  0  0  0  0  0  0  0  0
    9.0640    4.0170   22.9620 O   0  0  0  0  0  0  0  0  0  0  0  0
   11.8670    4.7460   23.3380 C   0  0  0  0  0  0  0  0  0  0  0  0
   12.1290    4.6700   22.0060 C   0  0  0  0  0  0  0  0  0  0  0  0
   13.4990    4.7370   21.9180 N   0  0  0  0  0  0  0  0  0  0  0  0
   14.0470    4.8550   23.1470 N   0  0  0  0  0  0  0  0  0  0  0  0
   13.0600    4.8910   23.9960 N   0  0  0  0  0  0  0  0  0  0  0  0
    9.5990    1.1010   23.5310 C   0  0  0  0  0  0  0  0  0  0  0  0
  1  2  2  0
  2  3  1  0
  2 10  1  0
  3  4  1  0
  4  5  2  0
  4  9  1  0
  5  6  1  0
  6  7  2  0
  7  8  1  0
  8  9  2  0
 10 11  1  0
 11 24  1  0
 11 12  2  0
 12 13  1  0
 13 14  2  0
 14 15  1  0
 15 16  1  0
 15 24  2  0
 17 16  1  0
 17 18  1  6
 17 19  1  0
 19 20  2  0
 19 23  1  0
 20 21  1  0
 21 22  1  0
 22 23  2  0
M  END
>  <original SMILES>  (958) 
O=C(Nc1cccnc1)Nc1cccc(C[SH](O)c2c[nH]nn2)c1

>  <AutoDock Predicted Affinity>  (958) 
-6.010274

>  <ref_pdb>  (958) 
x0434_0

>  <ref_mols>  (958) 
x0434_0

>  <creator>  (958) 
Will Poole

>  <energy minimised>  (958) 
True

$$$$
WPC1960_minimised.pdb
     RDKit          3D

 24 26  0  0  0  0  0  0  0  0999 V2000
    8.6670   -0.0820   19.8430 O   0  0  0  0  0  0  0  0  0  0  0  0
    7.9590   -0.2490   20.8140 C   0  0  0  0  0  0  0  0  0  0  0  0
    6.5950   -0.2410   20.7270 N   0  0  0  0  0  0  0  0  0  0  0  0
    5.8890    0.3180   19.6390 C   0  0  0  0  0  0  0  0  0  0  0  0
    4.9690    1.3440   19.8880 C   0  0  0  0  0  0  0  0  0  0  0  0
    4.3910    1.9850   18.7850 C   0  0  0  0  0  0  0  0  0  0  0  0
    4.7560    1.5920   17.4890 C   0  0  0  0  0  0  0  0  0  0  0  0
    5.6120    0.5770   17.2380 N   0  0  0  0  0  0  0  0  0  0  0  0
    6.1810   -0.0280   18.3020 C   0  0  0  0  0  0  0  0  0  0  0  0
    8.3990   -0.3930   22.0990 N   0  0  0  0  0  0  0  0  0  0  0  0
    9.6170    0.1230   22.5770 C   0  0  0  0  0  0  0  0  0  0  0  0
   10.8580   -0.3000   22.0790 C   0  0  0  0  0  0  0  0  0  0  0  0
   12.0350    0.3210   22.5320 C   0  0  0  0  0  0  0  0  0  0  0  0
   11.9620    1.3700   23.4650 C   0  0  0  0  0  0  0  0  0  0  0  0
   10.7150    1.8000   23.9590 C   0  0  0  0  0  0  0  0  0  0  0  0
   10.6020    2.9200   24.9890 C   0  0  0  0  0  0  0  0  0  0  0  0
   10.2150    4.5820   24.2840 S   0  0  2  0  0  0  0  0  0  0  0  0
    8.9750    4.1480   23.1890 O   0  0  0  0  0  0  0  0  0  0  0  0
   11.8170    4.7920   23.4770 C   0  0  0  0  0  0  0  0  0  0  0  0
   11.8330    4.9840   22.1310 N   0  0  0  0  0  0  0  0  0  0  0  0
   13.1550    5.1060   21.7560 C   0  0  0  0  0  0  0  0  0  0  0  0
   13.8690    4.9550   22.9150 C   0  0  0  0  0  0  0  0  0  0  0  0
   13.0290    4.7870   23.9850 N   0  0  0  0  0  0  0  0  0  0  0  0
    9.5530    1.1500   23.5240 C   0  0  0  0  0  0  0  0  0  0  0  0
  1  2  2  0
  2  3  1  0
  2 10  1  0
  3  4  1  0
  4  5  2  0
  4  9  1  0
  5  6  1  0
  6  7  2  0
  7  8  1  0
  8  9  2  0
 10 11  1  0
 11 24  1  0
 11 12  2  0
 12 13  1  0
 13 14  2  0
 14 15  1  0
 15 16  1  0
 15 24  2  0
 17 16  1  0
 17 18  1  6
 17 19  1  0
 19 20  1  0
 19 23  2  0
 20 21  1  0
 21 22  2  0
 22 23  1  0
M  END
>  <original SMILES>  (959) 
O=C(Nc1cccnc1)Nc1cccc(C[SH](O)c2ncc[nH]2)c1

>  <AutoDock Predicted Affinity>  (959) 
-5.910792

>  <ref_pdb>  (959) 
x0434_0

>  <ref_mols>  (959) 
x0434_0

>  <creator>  (959) 
Will Poole

>  <energy minimised>  (959) 
True

$$$$
WPC1562_minimised.pdb
     RDKit          3D

 24 26  0  0  0  0  0  0  0  0999 V2000
    8.6900   -0.1120   19.8470 O   0  0  0  0  0  0  0  0  0  0  0  0
    7.9790   -0.2850   20.8160 C   0  0  0  0  0  0  0  0  0  0  0  0
    6.6170   -0.2560   20.7300 N   0  0  0  0  0  0  0  0  0  0  0  0
    5.9110    0.3110   19.6450 C   0  0  0  0  0  0  0  0  0  0  0  0
    4.9890    1.3330   19.9000 C   0  0  0  0  0  0  0  0  0  0  0  0
    4.4020    1.9730   18.8000 C   0  0  0  0  0  0  0  0  0  0  0  0
    4.7630    1.5840   17.5020 C   0  0  0  0  0  0  0  0  0  0  0  0
    5.6230    0.5730   17.2450 N   0  0  0  0  0  0  0  0  0  0  0  0
    6.1990   -0.0310   18.3060 C   0  0  0  0  0  0  0  0  0  0  0  0
    8.4180   -0.4600   22.0970 N   0  0  0  0  0  0  0  0  0  0  0  0
    9.6400    0.0390   22.5830 C   0  0  0  0  0  0  0  0  0  0  0  0
   10.8800   -0.3990   22.0950 C   0  0  0  0  0  0  0  0  0  0  0  0
   12.0610    0.2120   22.5510 C   0  0  0  0  0  0  0  0  0  0  0  0
   11.9940    1.2710   23.4740 C   0  0  0  0  0  0  0  0  0  0  0  0
   10.7490    1.7130   23.9590 C   0  0  0  0  0  0  0  0  0  0  0  0
   10.6380    2.8560   24.9620 C   0  0  0  0  0  0  0  0  0  0  0  0
   10.2530    4.4910   24.2050 S   0  0  2  0  0  0  0  0  0  0  0  0
    8.9840    4.0500   23.1450 O   0  0  0  0  0  0  0  0  0  0  0  0
   11.8410    4.7040   23.3570 C   0  0  0  0  0  0  0  0  0  0  0  0
   11.8540    4.9890   22.0290 N   0  0  0  0  0  0  0  0  0  0  0  0
   13.1280    5.2040   21.6020 N   0  0  0  0  0  0  0  0  0  0  0  0
   13.8200    4.9970   22.7110 C   0  0  0  0  0  0  0  0  0  0  0  0
   13.0670    4.6990   23.8220 N   0  0  0  0  0  0  0  0  0  0  0  0
    9.5810    1.0710   23.5250 C   0  0  0  0  0  0  0  0  0  0  0  0
  1  2  2  0
  2  3  1  0
  2 10  1  0
  3  4  1  0
  4  5  2  0
  4  9  1  0
  5  6  1  0
  6  7  2  0
  7  8  1  0
  8  9  2  0
 10 11  1  0
 11 24  1  0
 11 12  2  0
 12 13  1  0
 13 14  2  0
 14 15  1  0
 15 16  1  0
 15 24  2  0
 17 16  1  0
 17 18  1  6
 17 19  1  0
 19 20  1  0
 19 23  2  0
 20 21  1  0
 21 22  2  0
 22 23  1  0
M  END
>  <original SMILES>  (960) 
O=C(Nc1cccnc1)Nc1cccc(C[SH](O)c2ncn[nH]2)c1

>  <AutoDock Predicted Affinity>  (960) 
-6.155234

>  <ref_pdb>  (960) 
x0434_0

>  <ref_mols>  (960) 
x0434_0

>  <creator>  (960) 
Will Poole

>  <energy minimised>  (960) 
True

$$$$
WPC1074_minimised.pdb
     RDKit          3D

 22 24  0  0  0  0  0  0  0  0999 V2000
    8.3760    0.3100   19.8660 O   0  0  0  0  0  0  0  0  0  0  0  0
    7.6390   -0.0330   20.7710 C   0  0  0  0  0  0  0  0  0  0  0  0
    6.2790    0.0240   20.6640 N   0  0  0  0  0  0  0  0  0  0  0  0
    5.6030    0.6010   19.5630 C   0  0  0  0  0  0  0  0  0  0  0  0
    4.6510    1.6030   19.7860 C   0  0  0  0  0  0  0  0  0  0  0  0
    4.1270    2.2600   18.6660 C   0  0  0  0  0  0  0  0  0  0  0  0
    4.5740    1.9090   17.3830 C   0  0  0  0  0  0  0  0  0  0  0  0
    5.4580    0.9110   17.1570 N   0  0  0  0  0  0  0  0  0  0  0  0
    5.9680    0.2860   18.2360 C   0  0  0  0  0  0  0  0  0  0  0  0
    8.0810   -0.4660   21.9890 N   0  0  0  0  0  0  0  0  0  0  0  0
    9.4320   -0.3870   22.3720 C   0  0  0  0  0  0  0  0  0  0  0  0
   10.4010   -1.1440   21.6980 C   0  0  0  0  0  0  0  0  0  0  0  0
   11.7650   -0.8940   21.9120 C   0  0  0  0  0  0  0  0  0  0  0  0
   12.1540    0.1140   22.8070 C   0  0  0  0  0  0  0  0  0  0  0  0
   11.1810    0.8370   23.5210 C   0  0  0  0  0  0  0  0  0  0  0  0
   11.5880    1.9130   24.5060 C   0  0  0  0  0  0  0  0  0  0  0  0
   11.3390    3.3260   24.0540 C   0  0  0  0  0  0  0  0  0  0  0  0
   10.6120    3.6620   22.9480 C   0  0  0  0  0  0  0  0  0  0  0  0
   10.6220    5.0370   22.9190 N   0  0  0  0  0  0  0  0  0  0  0  0
   11.3550    5.4680   24.0000 C   0  0  0  0  0  0  0  0  0  0  0  0
   11.7890    4.4440   24.7080 N   0  0  0  0  0  0  0  0  0  0  0  0
    9.8200    0.5750   23.3090 C   0  0  0  0  0  0  0  0  0  0  0  0
  1  2  2  0
  2  3  1  0
  2 10  1  0
  3  4  1  0
  4  5  2  0
  4  9  1  0
  5  6  1  0
  6  7  2  0
  7  8  1  0
  8  9  2  0
 10 11  1  0
 11 22  1  0
 11 12  2  0
 12 13  1  0
 13 14  2  0
 14 15  1  0
 15 16  1  0
 15 22  2  0
 16 17  1  0
 17 18  2  0
 17 21  1  0
 18 19  1  0
 19 20  1  0
 20 21  2  0
M  END
>  <original SMILES>  (961) 
O=C(Nc1cccnc1)Nc1cccc(Cc2c[nH]cn2)c1

>  <AutoDock Predicted Affinity>  (961) 
-6.19628

>  <ref_pdb>  (961) 
x0434_0

>  <ref_mols>  (961) 
x0434_0

>  <creator>  (961) 
Will Poole

>  <energy minimised>  (961) 
True

$$$$
WPC2329_minimised.pdb
     RDKit          3D

 22 24  0  0  0  0  0  0  0  0999 V2000
    8.6900    0.1210   19.8190 O   0  0  0  0  0  0  0  0  0  0  0  0
    7.9760   -0.1600   20.7580 C   0  0  0  0  0  0  0  0  0  0  0  0
    6.6180   -0.2540   20.6500 N   0  0  0  0  0  0  0  0  0  0  0  0
    5.8970    0.3200   19.5780 C   0  0  0  0  0  0  0  0  0  0  0  0
    4.9560    1.3190   19.8560 C   0  0  0  0  0  0  0  0  0  0  0  0
    4.3880    2.0010   18.7720 C   0  0  0  0  0  0  0  0  0  0  0  0
    4.7890    1.6820   17.4670 C   0  0  0  0  0  0  0  0  0  0  0  0
    5.6670    0.6920   17.1890 N   0  0  0  0  0  0  0  0  0  0  0  0
    6.2170    0.0380   18.2330 C   0  0  0  0  0  0  0  0  0  0  0  0
    8.4270   -0.3000   22.0370 N   0  0  0  0  0  0  0  0  0  0  0  0
    9.5980    0.3350   22.4910 C   0  0  0  0  0  0  0  0  0  0  0  0
   10.8660   -0.2370   22.3210 C   0  0  0  0  0  0  0  0  0  0  0  0
   12.0030    0.4610   22.7660 C   0  0  0  0  0  0  0  0  0  0  0  0
   11.8660    1.7260   23.3650 C   0  0  0  0  0  0  0  0  0  0  0  0
   10.5950    2.3240   23.4890 C   0  0  0  0  0  0  0  0  0  0  0  0
   10.3560    3.6950   24.1210 C   0  0  0  0  0  0  0  0  0  0  0  0
   11.4360    4.7340   24.0090 C   0  0  0  0  0  0  0  0  0  0  0  0
   12.4100    4.7980   23.0570 C   0  0  0  0  0  0  0  0  0  0  0  0
   13.1830    5.8560   23.4770 N   0  0  0  0  0  0  0  0  0  0  0  0
   12.6330    6.4580   24.5620 N   0  0  0  0  0  0  0  0  0  0  0  0
   11.5670    5.7820   24.8770 N   0  0  0  0  0  0  0  0  0  0  0  0
    9.4680    1.6070   23.0600 C   0  0  0  0  0  0  0  0  0  0  0  0
  1  2  2  0
  2  3  1  0
  2 10  1  0
  3  4  1  0
  4  5  2  0
  4  9  1  0
  5  6  1  0
  6  7  2  0
  7  8  1  0
  8  9  2  0
 10 11  1  0
 11 22  1  0
 11 12  2  0
 12 13  1  0
 13 14  2  0
 14 15  1  0
 15 16  1  0
 15 22  2  0
 16 17  1  0
 17 18  2  0
 17 21  1  0
 18 19  1  0
 19 20  1  0
 20 21  2  0
M  END
>  <original SMILES>  (962) 
O=C(Nc1cccnc1)Nc1cccc(Cc2c[nH]nn2)c1

>  <AutoDock Predicted Affinity>  (962) 
-6.77417

>  <ref_pdb>  (962) 
x0434_0

>  <ref_mols>  (962) 
x0434_0

>  <creator>  (962) 
Will Poole

>  <energy minimised>  (962) 
True

$$$$
WPC1778_minimised.pdb
     RDKit          3D

 24 26  0  0  0  0  0  0  0  0999 V2000
    8.6060   -0.1000   19.5990 O   0  0  0  0  0  0  0  0  0  0  0  0
    7.9750   -0.2960   20.6160 C   0  0  0  0  0  0  0  0  0  0  0  0
    6.6120   -0.1800   20.6600 N   0  0  0  0  0  0  0  0  0  0  0  0
    5.8430    0.3960   19.6180 C   0  0  0  0  0  0  0  0  0  0  0  0
    4.9280    1.4110   19.9240 C   0  0  0  0  0  0  0  0  0  0  0  0
    4.3190    2.0810   18.8560 C   0  0  0  0  0  0  0  0  0  0  0  0
    4.6550    1.7390   17.5380 C   0  0  0  0  0  0  0  0  0  0  0  0
    5.4930    0.7230   17.2350 N   0  0  0  0  0  0  0  0  0  0  0  0
    6.0770    0.0760   18.2620 C   0  0  0  0  0  0  0  0  0  0  0  0
    8.5570   -0.5920   21.8150 N   0  0  0  0  0  0  0  0  0  0  0  0
    9.9460   -0.5150   22.0400 C   0  0  0  0  0  0  0  0  0  0  0  0
   10.8110   -1.4600   21.4850 C   0  0  0  0  0  0  0  0  0  0  0  0
   12.2000   -1.3040   21.6140 C   0  0  0  0  0  0  0  0  0  0  0  0
   12.7170   -0.2260   22.3460 C   0  0  0  0  0  0  0  0  0  0  0  0
   11.8500    0.6980   22.9570 C   0  0  0  0  0  0  0  0  0  0  0  0
   12.4230    1.7140   23.9340 C   0  0  0  0  0  0  0  0  0  0  0  0
   11.9460    3.1650   23.8240 C   0  0  0  0  0  0  0  0  0  0  0  0
   10.6390    3.4950   24.2340 C   0  0  0  0  0  0  0  0  0  0  0  0
   10.1790    4.8160   24.1750 C   0  0  0  0  0  0  0  0  0  0  0  0
   11.0550    5.8480   23.8330 C   0  0  0  0  0  0  0  0  0  0  0  0
   12.3880    5.5480   23.5220 C   0  0  0  0  0  0  0  0  0  0  0  0
   12.8200    4.2200   23.4730 C   0  0  0  0  0  0  0  0  0  0  0  0
   14.1220    4.0110   23.1460 O   0  0  0  0  0  0  0  0  0  0  0  0
   10.4620    0.5540   22.7760 C   0  0  0  0  0  0  0  0  0  0  0  0
  1  2  2  0
  2  3  1  0
  2 10  1  0
  3  4  1  0
  4  5  2  0
  4  9  1  0
  5  6  1  0
  6  7  2  0
  7  8  1  0
  8  9  2  0
 10 11  1  0
 11 24  1  0
 11 12  2  0
 12 13  1  0
 13 14  2  0
 14 15  1  0
 15 16  1  0
 15 24  2  0
 16 17  1  0
 17 18  2  0
 17 22  1  0
 18 19  1  0
 19 20  2  0
 20 21  1  0
 21 22  2  0
 22 23  1  0
M  END
>  <original SMILES>  (963) 
O=C(Nc1cccnc1)Nc1cccc(Cc2ccccc2O)c1

>  <AutoDock Predicted Affinity>  (963) 
-7.19781

>  <ref_pdb>  (963) 
x0434_0

>  <ref_mols>  (963) 
x0434_0

>  <creator>  (963) 
Will Poole

>  <energy minimised>  (963) 
True

$$$$
WPC2301_minimised.pdb
     RDKit          3D

 23 25  0  0  0  0  0  0  0  0999 V2000
    8.3930   -0.2670   19.6580 O   0  0  0  0  0  0  0  0  0  0  0  0
    7.6780   -0.4180   20.6300 C   0  0  0  0  0  0  0  0  0  0  0  0
    6.3280   -0.2060   20.5940 N   0  0  0  0  0  0  0  0  0  0  0  0
    5.6490    0.4320   19.5290 C   0  0  0  0  0  0  0  0  0  0  0  0
    4.7360    1.4550   19.8150 C   0  0  0  0  0  0  0  0  0  0  0  0
    4.1970    2.1670   18.7350 C   0  0  0  0  0  0  0  0  0  0  0  0
    4.5970    1.8500   17.4280 C   0  0  0  0  0  0  0  0  0  0  0  0
    5.4400    0.8330   17.1420 N   0  0  0  0  0  0  0  0  0  0  0  0
    5.9570    0.1490   18.1810 C   0  0  0  0  0  0  0  0  0  0  0  0
    8.1410   -0.7620   21.8690 N   0  0  0  0  0  0  0  0  0  0  0  0
    9.5020   -0.6890   22.2160 C   0  0  0  0  0  0  0  0  0  0  0  0
   10.4540   -1.4760   21.5570 C   0  0  0  0  0  0  0  0  0  0  0  0
   11.8240   -1.2420   21.7510 C   0  0  0  0  0  0  0  0  0  0  0  0
   12.2380   -0.2340   22.6360 C   0  0  0  0  0  0  0  0  0  0  0  0
   11.2810    0.5020   23.3540 C   0  0  0  0  0  0  0  0  0  0  0  0
   11.6990    1.5300   24.3800 C   0  0  0  0  0  0  0  0  0  0  0  0
   11.4010    2.9550   23.9550 C   0  0  0  0  0  0  0  0  0  0  0  0
   12.4170    3.7910   23.4640 C   0  0  0  0  0  0  0  0  0  0  0  0
   12.1140    5.1200   23.1430 C   0  0  0  0  0  0  0  0  0  0  0  0
   10.7840    5.5430   23.3020 C   0  0  0  0  0  0  0  0  0  0  0  0
    9.8270    4.6320   23.7650 C   0  0  0  0  0  0  0  0  0  0  0  0
   10.1340    3.3760   24.1290 N   0  0  0  0  0  0  0  0  0  0  0  0
    9.9140    0.2770   23.1360 C   0  0  0  0  0  0  0  0  0  0  0  0
  1  2  2  0
  2  3  1  0
  2 10  1  0
  3  4  1  0
  4  5  2  0
  4  9  1  0
  5  6  1  0
  6  7  2  0
  7  8  1  0
  8  9  2  0
 10 11  1  0
 11 23  1  0
 11 12  2  0
 12 13  1  0
 13 14  2  0
 14 15  1  0
 15 16  1  0
 15 23  2  0
 16 17  1  0
 17 18  2  0
 17 22  1  0
 18 19  1  0
 19 20  2  0
 20 21  1  0
 21 22  2  0
M  END
>  <original SMILES>  (964) 
O=C(Nc1cccnc1)Nc1cccc(Cc2ccccn2)c1

>  <AutoDock Predicted Affinity>  (964) 
-6.49174

>  <ref_pdb>  (964) 
x0434_0

>  <ref_mols>  (964) 
x0434_0

>  <creator>  (964) 
Will Poole

>  <energy minimised>  (964) 
True

$$$$
WPC2473_minimised.pdb
     RDKit          3D

 24 26  0  0  0  0  0  0  0  0999 V2000
    8.7870    0.0870   19.8960 O   0  0  0  0  0  0  0  0  0  0  0  0
    8.1500   -0.4910   20.7520 C   0  0  0  0  0  0  0  0  0  0  0  0
    6.7910   -0.6260   20.6630 N   0  0  0  0  0  0  0  0  0  0  0  0
    6.0320    0.0470   19.6750 C   0  0  0  0  0  0  0  0  0  0  0  0
    5.1310    1.0520   20.0530 C   0  0  0  0  0  0  0  0  0  0  0  0
    4.5430    1.8190   19.0370 C   0  0  0  0  0  0  0  0  0  0  0  0
    4.8760    1.5690   17.6960 C   0  0  0  0  0  0  0  0  0  0  0  0
    5.7180    0.5800   17.3250 N   0  0  0  0  0  0  0  0  0  0  0  0
    6.2950   -0.1470   18.3030 C   0  0  0  0  0  0  0  0  0  0  0  0
    8.6990   -0.9660   21.9130 N   0  0  0  0  0  0  0  0  0  0  0  0
    9.8920   -0.4220   22.4280 C   0  0  0  0  0  0  0  0  0  0  0  0
   11.1450   -0.7260   21.8740 C   0  0  0  0  0  0  0  0  0  0  0  0
   12.2740    0.0240   22.2480 C   0  0  0  0  0  0  0  0  0  0  0  0
   12.1350    1.1050   23.1360 C   0  0  0  0  0  0  0  0  0  0  0  0
   10.8760    1.4080   23.6860 C   0  0  0  0  0  0  0  0  0  0  0  0
   10.6770    2.6180   24.5820 C   0  0  0  0  0  0  0  0  0  0  0  0
   10.1420    3.8540   23.8820 C   0  0  0  0  0  0  0  0  0  0  0  0
    9.0080    3.7680   23.0970 C   0  0  0  0  0  0  0  0  0  0  0  0
    8.4830    4.9730   22.5270 C   0  0  0  0  0  0  0  0  0  0  0  0
    9.1260    6.1600   22.7820 C   0  0  0  0  0  0  0  0  0  0  0  0
   10.2410    6.2320   23.5610 O   0  0  0  0  0  0  0  0  0  0  0  0
   10.8410    5.1390   24.1020 C   0  0  0  0  0  0  0  0  0  0  0  0
   11.8360    5.2610   24.7940 O   0  0  0  0  0  0  0  0  0  0  0  0
    9.7740    0.6010   23.3710 C   0  0  0  0  0  0  0  0  0  0  0  0
  1  2  2  0
  2  3  1  0
  2 10  1  0
  3  4  1  0
  4  5  2  0
  4  9  1  0
  5  6  1  0
  6  7  2  0
  7  8  1  0
  8  9  2  0
 10 11  1  0
 11 24  1  0
 11 12  2  0
 12 13  1  0
 13 14  2  0
 14 15  1  0
 15 16  1  0
 15 24  2  0
 16 17  1  0
 17 18  2  0
 17 22  1  0
 18 19  1  0
 19 20  2  0
 20 21  1  0
 21 22  1  0
 22 23  2  0
M  END
>  <original SMILES>  (965) 
O=C(Nc1cccnc1)Nc1cccc(Cc2cccoc2=O)c1

>  <AutoDock Predicted Affinity>  (965) 
-6.7257

>  <ref_pdb>  (965) 
x0434_0

>  <ref_mols>  (965) 
x0434_0

>  <creator>  (965) 
Will Poole

>  <energy minimised>  (965) 
True

$$$$
WPC2556_minimised.pdb
     RDKit          3D

 22 24  0  0  0  0  0  0  0  0999 V2000
    8.5070    0.1050   19.6970 O   0  0  0  0  0  0  0  0  0  0  0  0
    7.8080   -0.2600   20.6200 C   0  0  0  0  0  0  0  0  0  0  0  0
    6.4450   -0.3140   20.5320 N   0  0  0  0  0  0  0  0  0  0  0  0
    5.7230    0.3110   19.4900 C   0  0  0  0  0  0  0  0  0  0  0  0
    4.7930    1.3090   19.8050 C   0  0  0  0  0  0  0  0  0  0  0  0
    4.2330    2.0350   18.7450 C   0  0  0  0  0  0  0  0  0  0  0  0
    4.6270    1.7520   17.4280 C   0  0  0  0  0  0  0  0  0  0  0  0
    5.4970    0.7650   17.1160 N   0  0  0  0  0  0  0  0  0  0  0  0
    6.0400    0.0720   18.1360 C   0  0  0  0  0  0  0  0  0  0  0  0
    8.2810   -0.5600   21.8640 N   0  0  0  0  0  0  0  0  0  0  0  0
    9.5310   -0.1170   22.3330 C   0  0  0  0  0  0  0  0  0  0  0  0
   10.7310   -0.6130   21.8030 C   0  0  0  0  0  0  0  0  0  0  0  0
   11.9580   -0.0630   22.2120 C   0  0  0  0  0  0  0  0  0  0  0  0
   11.9770    0.9800   23.1530 C   0  0  0  0  0  0  0  0  0  0  0  0
   10.7700    1.4640   23.6910 C   0  0  0  0  0  0  0  0  0  0  0  0
   10.7720    2.5290   24.7660 C   0  0  0  0  0  0  0  0  0  0  0  0
   10.7920    3.9510   24.2970 C   0  0  0  0  0  0  0  0  0  0  0  0
   10.1540    4.4590   23.1930 N   0  0  0  0  0  0  0  0  0  0  0  0
   10.3180    5.8250   23.2330 C   0  0  0  0  0  0  0  0  0  0  0  0
   11.1310    6.0700   24.3090 C   0  0  0  0  0  0  0  0  0  0  0  0
   11.3890    4.9060   24.9770 N   0  0  0  0  0  0  0  0  0  0  0  0
    9.5510    0.9110   23.2800 C   0  0  0  0  0  0  0  0  0  0  0  0
  1  2  2  0
  2  3  1  0
  2 10  1  0
  3  4  1  0
  4  5  2  0
  4  9  1  0
  5  6  1  0
  6  7  2  0
  7  8  1  0
  8  9  2  0
 10 11  1  0
 11 22  1  0
 11 12  2  0
 12 13  1  0
 13 14  2  0
 14 15  1  0
 15 16  1  0
 15 22  2  0
 16 17  1  0
 17 18  1  0
 17 21  2  0
 18 19  1  0
 19 20  2  0
 20 21  1  0
M  END
>  <original SMILES>  (966) 
O=C(Nc1cccnc1)Nc1cccc(Cc2ncc[nH]2)c1

>  <AutoDock Predicted Affinity>  (966) 
-6.386995

>  <ref_pdb>  (966) 
x0434_0

>  <ref_mols>  (966) 
x0434_0

>  <creator>  (966) 
Will Poole

>  <energy minimised>  (966) 
True

$$$$
WPC1920_minimised.pdb
     RDKit          3D

 17 18  0  0  0  0  0  0  0  0999 V2000
    8.7250    0.1290   19.8360 O   0  0  0  0  0  0  0  0  0  0  0  0
    8.0640    0.0130   20.8470 C   0  0  0  0  0  0  0  0  0  0  0  0
    6.6950    0.0190   20.8270 N   0  0  0  0  0  0  0  0  0  0  0  0
    5.9320    0.4880   19.7280 C   0  0  0  0  0  0  0  0  0  0  0  0
    4.9710    1.4820   19.9530 C   0  0  0  0  0  0  0  0  0  0  0  0
    4.3600    2.0630   18.8360 C   0  0  0  0  0  0  0  0  0  0  0  0
    4.7380    1.6550   17.5480 C   0  0  0  0  0  0  0  0  0  0  0  0
    5.6230    0.6580   17.3220 N   0  0  0  0  0  0  0  0  0  0  0  0
    6.2130    0.1010   18.3990 C   0  0  0  0  0  0  0  0  0  0  0  0
    8.6140   -0.0610   22.0950 N   0  0  0  0  0  0  0  0  0  0  0  0
    9.9580    0.2680   22.3640 C   0  0  0  0  0  0  0  0  0  0  0  0
   10.9900   -0.6510   22.1150 C   0  0  0  0  0  0  0  0  0  0  0  0
   12.3290   -0.2750   22.3190 C   0  0  0  0  0  0  0  0  0  0  0  0
   12.6320    1.0220   22.7710 C   0  0  0  0  0  0  0  0  0  0  0  0
   11.5970    1.9460   22.9920 C   0  0  0  0  0  0  0  0  0  0  0  0
   11.9580    3.5990   23.4370 Cl  0  0  0  0  0  0  0  0  0  0  0  0
   10.2630    1.5660   22.7950 C   0  0  0  0  0  0  0  0  0  0  0  0
  1  2  2  0
  2 10  1  0
  2  3  1  0
  3  4  1  0
  4  5  2  0
  4  9  1  0
  5  6  1  0
  6  7  2  0
  7  8  1  0
  8  9  2  0
 10 11  1  0
 11 12  2  0
 11 17  1  0
 12 13  1  0
 13 14  2  0
 14 15  1  0
 15 16  1  0
 15 17  2  0
M  END
>  <original SMILES>  (967) 
O=C(Nc1cccnc1)Nc1cccc(Cl)c1

>  <AutoDock Predicted Affinity>  (967) 
-5.57012

>  <ref_pdb>  (967) 
x0434_0

>  <ref_mols>  (967) 
x0434_0

>  <creator>  (967) 
Will Poole

>  <energy minimised>  (967) 
True

$$$$
WPC2541_minimised.pdb
     RDKit          3D

 23 25  0  0  0  0  0  0  0  0999 V2000
    8.5940   -0.1550   19.6300 O   0  0  0  0  0  0  0  0  0  0  0  0
    7.9580   -0.1810   20.6640 C   0  0  0  0  0  0  0  0  0  0  0  0
    6.6000   -0.0160   20.6970 N   0  0  0  0  0  0  0  0  0  0  0  0
    5.8330    0.4990   19.6240 C   0  0  0  0  0  0  0  0  0  0  0  0
    4.8990    1.5090   19.8890 C   0  0  0  0  0  0  0  0  0  0  0  0
    4.2770    2.1240   18.7960 C   0  0  0  0  0  0  0  0  0  0  0  0
    4.6240    1.7370   17.4930 C   0  0  0  0  0  0  0  0  0  0  0  0
    5.4770    0.7220   17.2300 N   0  0  0  0  0  0  0  0  0  0  0  0
    6.0710    0.1270   18.2820 C   0  0  0  0  0  0  0  0  0  0  0  0
    8.5300   -0.3230   21.8950 N   0  0  0  0  0  0  0  0  0  0  0  0
    9.9190   -0.2670   22.1210 C   0  0  0  0  0  0  0  0  0  0  0  0
   10.7550   -1.2920   21.6580 C   0  0  0  0  0  0  0  0  0  0  0  0
   12.1450   -1.1830   21.8060 C   0  0  0  0  0  0  0  0  0  0  0  0
   12.6940   -0.0570   22.4350 C   0  0  0  0  0  0  0  0  0  0  0  0
   11.8610    0.9680   22.9200 C   0  0  0  0  0  0  0  0  0  0  0  0
   12.5100    2.1320   23.6570 C   0  0  0  0  0  0  0  0  0  0  0  0
   11.7380    3.3830   23.7680 N   0  0  0  0  0  0  0  0  0  0  0  0
   10.5730    3.5800   24.5440 N   0  0  0  0  0  0  0  0  0  0  0  0
    9.8740    4.7200   24.2720 N   0  0  0  0  0  0  0  0  0  0  0  0
   10.6320    5.2480   23.3210 C   0  0  0  0  0  0  0  0  0  0  0  0
   11.8550    4.5130   22.9940 C   0  0  0  0  0  0  0  0  0  0  0  0
   13.1210    4.9460   21.9860 S   0  0  0  0  0  0  0  0  0  0  0  0
   10.4680    0.8570   22.7500 C   0  0  0  0  0  0  0  0  0  0  0  0
  1  2  2  0
  2  3  1  0
  2 10  1  0
  3  4  1  0
  4  5  2  0
  4  9  1  0
  5  6  1  0
  6  7  2  0
  7  8  1  0
  8  9  2  0
 10 11  1  0
 11 23  1  0
 11 12  2  0
 12 13  1  0
 13 14  2  0
 14 15  1  0
 15 16  1  0
 15 23  2  0
 16 17  1  0
 17 18  1  0
 17 21  1  0
 18 19  1  0
 19 20  2  0
 20 21  1  0
 21 22  2  0
M  END
>  <original SMILES>  (968) 
O=C(Nc1cccnc1)Nc1cccc(Cn2[nH]ncc2=S)c1

>  <AutoDock Predicted Affinity>  (968) 
-6.05687

>  <ref_pdb>  (968) 
x0434_0

>  <ref_mols>  (968) 
x0434_0

>  <creator>  (968) 
Will Poole

>  <energy minimised>  (968) 
True

$$$$
WPC1622_minimised.pdb
     RDKit          3D

 23 25  0  0  0  0  0  0  0  0999 V2000
    8.3970   -0.2270   19.6530 O   0  0  0  0  0  0  0  0  0  0  0  0
    7.6570   -0.3110   20.6140 C   0  0  0  0  0  0  0  0  0  0  0  0
    6.3120   -0.0800   20.5420 N   0  0  0  0  0  0  0  0  0  0  0  0
    5.6570    0.5330   19.4490 C   0  0  0  0  0  0  0  0  0  0  0  0
    4.7220    1.5440   19.7030 C   0  0  0  0  0  0  0  0  0  0  0  0
    4.1950    2.2340   18.6050 C   0  0  0  0  0  0  0  0  0  0  0  0
    4.6330    1.9170   17.3110 C   0  0  0  0  0  0  0  0  0  0  0  0
    5.4960    0.9090   17.0540 N   0  0  0  0  0  0  0  0  0  0  0  0
    5.9990    0.2410   18.1100 C   0  0  0  0  0  0  0  0  0  0  0  0
    8.0830   -0.5900   21.8820 N   0  0  0  0  0  0  0  0  0  0  0  0
    9.4360   -0.5380   22.2640 C   0  0  0  0  0  0  0  0  0  0  0  0
   10.3860   -1.3560   21.6380 C   0  0  0  0  0  0  0  0  0  0  0  0
   11.7540   -1.1650   21.8840 C   0  0  0  0  0  0  0  0  0  0  0  0
   12.1650   -0.1690   22.7830 C   0  0  0  0  0  0  0  0  0  0  0  0
   11.2070    0.6080   23.4580 C   0  0  0  0  0  0  0  0  0  0  0  0
   11.6360    1.6560   24.4590 C   0  0  0  0  0  0  0  0  0  0  0  0
   11.8800    2.9620   23.8500 N   0  0  0  0  0  0  0  0  0  0  0  0
   13.0270    3.3450   23.1890 C   0  0  0  0  0  0  0  0  0  0  0  0
   12.7710    4.6150   22.7780 C   0  0  0  0  0  0  0  0  0  0  0  0
   13.9610    5.6770   21.7810 Br  0  0  0  0  0  0  0  0  0  0  0  0
   11.4620    4.9570   23.2140 C   0  0  0  0  0  0  0  0  0  0  0  0
   10.9460    3.9560   23.9090 N   0  0  0  0  0  0  0  0  0  0  0  0
    9.8430    0.4310   23.1870 C   0  0  0  0  0  0  0  0  0  0  0  0
  1  2  2  0
  2  3  1  0
  2 10  1  0
  3  4  1  0
  4  5  2  0
  4  9  1  0
  5  6  1  0
  6  7  2  0
  7  8  1  0
  8  9  2  0
 10 11  1  0
 11 23  1  0
 11 12  2  0
 12 13  1  0
 13 14  2  0
 14 15  1  0
 15 16  1  0
 15 23  2  0
 16 17  1  0
 17 18  1  0
 17 22  1  0
 18 19  2  0
 19 20  1  0
 19 21  1  0
 21 22  2  0
M  END
>  <original SMILES>  (969) 
O=C(Nc1cccnc1)Nc1cccc(Cn2cc(Br)cn2)c1

>  <AutoDock Predicted Affinity>  (969) 
-6.33296

>  <ref_pdb>  (969) 
x0434_0

>  <ref_mols>  (969) 
x0434_0

>  <creator>  (969) 
Will Poole

>  <energy minimised>  (969) 
True

$$$$
WPC2373_minimised.pdb
     RDKit          3D

 23 25  0  0  0  0  0  0  0  0999 V2000
    8.5760    0.0790   19.7630 O   0  0  0  0  0  0  0  0  0  0  0  0
    7.8230   -0.2520   20.6550 C   0  0  0  0  0  0  0  0  0  0  0  0
    6.4650   -0.2910   20.5080 N   0  0  0  0  0  0  0  0  0  0  0  0
    5.7840    0.3450   19.4460 C   0  0  0  0  0  0  0  0  0  0  0  0
    4.8350    1.3320   19.7410 C   0  0  0  0  0  0  0  0  0  0  0  0
    4.2990    2.0610   18.6720 C   0  0  0  0  0  0  0  0  0  0  0  0
    4.7370    1.7980   17.3660 C   0  0  0  0  0  0  0  0  0  0  0  0
    5.6250    0.8220   17.0710 N   0  0  0  0  0  0  0  0  0  0  0  0
    6.1430    0.1230   18.1010 C   0  0  0  0  0  0  0  0  0  0  0  0
    8.2270   -0.5240   21.9290 N   0  0  0  0  0  0  0  0  0  0  0  0
    9.4280   -0.0220   22.4580 C   0  0  0  0  0  0  0  0  0  0  0  0
   10.6630   -0.6330   22.1980 C   0  0  0  0  0  0  0  0  0  0  0  0
   11.8430   -0.0440   22.6830 C   0  0  0  0  0  0  0  0  0  0  0  0
   11.7820    1.1540   23.4180 C   0  0  0  0  0  0  0  0  0  0  0  0
   10.5430    1.7890   23.6410 C   0  0  0  0  0  0  0  0  0  0  0  0
   10.4300    3.1370   24.3470 C   0  0  0  0  0  0  0  0  0  0  0  0
   11.4140    4.1360   23.9300 N   0  0  0  0  0  0  0  0  0  0  0  0
   12.0860    4.2080   22.7380 C   0  0  0  0  0  0  0  0  0  0  0  0
   12.9270    5.2560   22.9110 C   0  0  0  0  0  0  0  0  0  0  0  0
   14.2090    5.9130   21.7070 Br  0  0  0  0  0  0  0  0  0  0  0  0
   12.7050    5.8390   24.1290 N   0  0  0  0  0  0  0  0  0  0  0  0
   11.7730    5.1650   24.7420 N   0  0  0  0  0  0  0  0  0  0  0  0
    9.3710    1.1830   23.1680 C   0  0  0  0  0  0  0  0  0  0  0  0
  1  2  2  0
  2  3  1  0
  2 10  1  0
  3  4  1  0
  4  5  2  0
  4  9  1  0
  5  6  1  0
  6  7  2  0
  7  8  1  0
  8  9  2  0
 10 11  1  0
 11 23  1  0
 11 12  2  0
 12 13  1  0
 13 14  2  0
 14 15  1  0
 15 16  1  0
 15 23  2  0
 16 17  1  0
 17 18  1  0
 17 22  1  0
 18 19  2  0
 19 20  1  0
 19 21  1  0
 21 22  2  0
M  END
>  <original SMILES>  (970) 
O=C(Nc1cccnc1)Nc1cccc(Cn2cc(Br)nn2)c1

>  <AutoDock Predicted Affinity>  (970) 
-6.65051

>  <ref_pdb>  (970) 
x0434_0

>  <ref_mols>  (970) 
x0434_0

>  <creator>  (970) 
Will Poole

>  <energy minimised>  (970) 
True

$$$$
WPC1619_minimised.pdb
     RDKit          3D

 24 26  0  0  0  0  0  0  0  0999 V2000
    8.6020    0.1210   19.8020 O   0  0  0  0  0  0  0  0  0  0  0  0
    7.8520   -0.2000   20.7020 C   0  0  0  0  0  0  0  0  0  0  0  0
    6.4960   -0.2620   20.5530 N   0  0  0  0  0  0  0  0  0  0  0  0
    5.8070    0.3510   19.4810 C   0  0  0  0  0  0  0  0  0  0  0  0
    4.8500    1.3330   19.7640 C   0  0  0  0  0  0  0  0  0  0  0  0
    4.3090    2.0440   18.6860 C   0  0  0  0  0  0  0  0  0  0  0  0
    4.7510    1.7700   17.3840 C   0  0  0  0  0  0  0  0  0  0  0  0
    5.6460    0.7980   17.1010 N   0  0  0  0  0  0  0  0  0  0  0  0
    6.1710    0.1160   18.1390 C   0  0  0  0  0  0  0  0  0  0  0  0
    8.2590   -0.4300   21.9830 N   0  0  0  0  0  0  0  0  0  0  0  0
    9.4480    0.1150   22.4990 C   0  0  0  0  0  0  0  0  0  0  0  0
   10.6940   -0.4870   22.2710 C   0  0  0  0  0  0  0  0  0  0  0  0
   11.8610    0.1390   22.7430 C   0  0  0  0  0  0  0  0  0  0  0  0
   11.7750    1.3620   23.4310 C   0  0  0  0  0  0  0  0  0  0  0  0
   10.5260    1.9880   23.6190 C   0  0  0  0  0  0  0  0  0  0  0  0
   10.3820    3.3540   24.2860 C   0  0  0  0  0  0  0  0  0  0  0  0
   11.4090    4.3380   23.9410 N   0  0  0  0  0  0  0  0  0  0  0  0
   12.1680    4.4120   22.8010 C   0  0  0  0  0  0  0  0  0  0  0  0
   13.0250    5.4340   23.0600 C   0  0  0  0  0  0  0  0  0  0  0  0
   14.1330    5.8610   22.1410 C   0  0  0  0  0  0  0  0  0  0  0  0
   13.8710    5.6020   20.8460 F   0  0  0  0  0  0  0  0  0  0  0  0
   12.7260    5.9990   24.2710 N   0  0  0  0  0  0  0  0  0  0  0  0
   11.7310    5.3440   24.7960 N   0  0  0  0  0  0  0  0  0  0  0  0
    9.3670    1.3450   23.1620 C   0  0  0  0  0  0  0  0  0  0  0  0
  1  2  2  0
  2 10  1  0
  2  3  1  0
  3  4  1  0
  4  5  2  0
  4  9  1  0
  5  6  1  0
  6  7  2  0
  7  8  1  0
  8  9  2  0
 10 11  1  0
 11 12  2  0
 11 24  1  0
 12 13  1  0
 13 14  2  0
 14 15  1  0
 15 16  1  0
 15 24  2  0
 16 17  1  0
 17 18  1  0
 17 23  1  0
 18 19  2  0
 19 20  1  0
 19 22  1  0
 20 21  1  0
 22 23  2  0
M  END
>  <original SMILES>  (971) 
O=C(Nc1cccnc1)Nc1cccc(Cn2cc(CF)nn2)c1

>  <AutoDock Predicted Affinity>  (971) 
-6.67842

>  <ref_pdb>  (971) 
x0434_0

>  <ref_mols>  (971) 
x0434_0

>  <creator>  (971) 
Will Poole

>  <energy minimised>  (971) 
True

$$$$
WPC2633_minimised.pdb
     RDKit          3D

 24 26  0  0  0  0  0  0  0  0999 V2000
    8.4080   -0.1190   19.5810 O   0  0  0  0  0  0  0  0  0  0  0  0
    7.5790   -0.3300   20.4440 C   0  0  0  0  0  0  0  0  0  0  0  0
    6.2360   -0.1590   20.2680 N   0  0  0  0  0  0  0  0  0  0  0  0
    5.6500    0.5430   19.1930 C   0  0  0  0  0  0  0  0  0  0  0  0
    4.6790    1.5140   19.4640 C   0  0  0  0  0  0  0  0  0  0  0  0
    4.2180    2.2880   18.3920 C   0  0  0  0  0  0  0  0  0  0  0  0
    4.7610    2.0940   17.1140 C   0  0  0  0  0  0  0  0  0  0  0  0
    5.6710    1.1330   16.8410 N   0  0  0  0  0  0  0  0  0  0  0  0
    6.1050    0.3810   17.8690 C   0  0  0  0  0  0  0  0  0  0  0  0
    7.8800   -0.6790   21.7260 N   0  0  0  0  0  0  0  0  0  0  0  0
    9.1340   -0.4310   22.3030 C   0  0  0  0  0  0  0  0  0  0  0  0
   10.2770   -1.1450   21.9150 C   0  0  0  0  0  0  0  0  0  0  0  0
   11.5250   -0.8100   22.4640 C   0  0  0  0  0  0  0  0  0  0  0  0
   11.6210    0.2400   23.3950 C   0  0  0  0  0  0  0  0  0  0  0  0
   10.4750    0.9700   23.7620 C   0  0  0  0  0  0  0  0  0  0  0  0
   10.5440    2.1130   24.7600 C   0  0  0  0  0  0  0  0  0  0  0  0
   11.2170    3.3270   24.2800 N   0  0  0  0  0  0  0  0  0  0  0  0
   12.2270    3.4330   23.3550 C   0  0  0  0  0  0  0  0  0  0  0  0
   12.5090    4.7620   23.3430 C   0  0  0  0  0  0  0  0  0  0  0  0
   13.5610    5.3700   22.4580 C   0  0  0  0  0  0  0  0  0  0  0  0
   13.2710    5.1530   21.0760 O   0  0  0  0  0  0  0  0  0  0  0  0
   11.6990    5.4260   24.2250 N   0  0  0  0  0  0  0  0  0  0  0  0
   10.9090    4.5530   24.7880 N   0  0  0  0  0  0  0  0  0  0  0  0
    9.2330    0.6230   23.2150 C   0  0  0  0  0  0  0  0  0  0  0  0
  1  2  2  0
  2 10  1  0
  2  3  1  0
  3  4  1  0
  4  5  2  0
  4  9  1  0
  5  6  1  0
  6  7  2  0
  7  8  1  0
  8  9  2  0
 10 11  1  0
 11 12  2  0
 11 24  1  0
 12 13  1  0
 13 14  2  0
 14 15  1  0
 15 16  1  0
 15 24  2  0
 16 17  1  0
 17 18  1  0
 17 23  1  0
 18 19  2  0
 19 20  1  0
 19 22  1  0
 20 21  1  0
 22 23  2  0
M  END
>  <original SMILES>  (972) 
O=C(Nc1cccnc1)Nc1cccc(Cn2cc(CO)nn2)c1

>  <AutoDock Predicted Affinity>  (972) 
-6.593729

>  <ref_pdb>  (972) 
x0434_0

>  <ref_mols>  (972) 
x0434_0

>  <creator>  (972) 
Will Poole

>  <energy minimised>  (972) 
True

$$$$
WPC1651_minimised.pdb
     RDKit          3D

 23 25  0  0  0  0  0  0  0  0999 V2000
    8.4150   -0.1770   19.6420 O   0  0  0  0  0  0  0  0  0  0  0  0
    7.6810   -0.2650   20.6070 C   0  0  0  0  0  0  0  0  0  0  0  0
    6.3340   -0.0420   20.5410 N   0  0  0  0  0  0  0  0  0  0  0  0
    5.6680    0.5620   19.4490 C   0  0  0  0  0  0  0  0  0  0  0  0
    4.7280    1.5680   19.7040 C   0  0  0  0  0  0  0  0  0  0  0  0
    4.1890    2.2480   18.6050 C   0  0  0  0  0  0  0  0  0  0  0  0
    4.6210    1.9260   17.3110 C   0  0  0  0  0  0  0  0  0  0  0  0
    5.4900    0.9230   17.0540 N   0  0  0  0  0  0  0  0  0  0  0  0
    6.0040    0.2650   18.1100 C   0  0  0  0  0  0  0  0  0  0  0  0
    8.1150   -0.5410   21.8720 N   0  0  0  0  0  0  0  0  0  0  0  0
    9.4710   -0.4920   22.2440 C   0  0  0  0  0  0  0  0  0  0  0  0
   10.4120   -1.3270   21.6250 C   0  0  0  0  0  0  0  0  0  0  0  0
   11.7830   -1.1450   21.8650 C   0  0  0  0  0  0  0  0  0  0  0  0
   12.2060   -0.1430   22.7510 C   0  0  0  0  0  0  0  0  0  0  0  0
   11.2570    0.6520   23.4190 C   0  0  0  0  0  0  0  0  0  0  0  0
   11.6980    1.7030   24.4120 C   0  0  0  0  0  0  0  0  0  0  0  0
   11.9350    3.0110   23.8030 N   0  0  0  0  0  0  0  0  0  0  0  0
   13.0870    3.4100   23.1570 C   0  0  0  0  0  0  0  0  0  0  0  0
   12.8130    4.6760   22.7500 C   0  0  0  0  0  0  0  0  0  0  0  0
   13.8740    5.7070   21.8470 Cl  0  0  0  0  0  0  0  0  0  0  0  0
   11.4990    5.0060   23.1740 C   0  0  0  0  0  0  0  0  0  0  0  0
   10.9890    3.9950   23.8590 N   0  0  0  0  0  0  0  0  0  0  0  0
    9.8910    0.4840   23.1540 C   0  0  0  0  0  0  0  0  0  0  0  0
  1  2  2  0
  2  3  1  0
  2 10  1  0
  3  4  1  0
  4  5  2  0
  4  9  1  0
  5  6  1  0
  6  7  2  0
  7  8  1  0
  8  9  2  0
 10 11  1  0
 11 23  1  0
 11 12  2  0
 12 13  1  0
 13 14  2  0
 14 15  1  0
 15 16  1  0
 15 23  2  0
 16 17  1  0
 17 18  1  0
 17 22  1  0
 18 19  2  0
 19 20  1  0
 19 21  1  0
 21 22  2  0
M  END
>  <original SMILES>  (973) 
O=C(Nc1cccnc1)Nc1cccc(Cn2cc(Cl)cn2)c1

>  <AutoDock Predicted Affinity>  (973) 
-6.44596

>  <ref_pdb>  (973) 
x0434_0

>  <ref_mols>  (973) 
x0434_0

>  <creator>  (973) 
Will Poole

>  <energy minimised>  (973) 
True

$$$$
WPC1602_minimised.pdb
     RDKit          3D

 22 24  0  0  0  0  0  0  0  0999 V2000
    8.4310   -0.1360   19.6400 O   0  0  0  0  0  0  0  0  0  0  0  0
    7.7370   -0.2130   20.6350 C   0  0  0  0  0  0  0  0  0  0  0  0
    6.3820   -0.0350   20.6070 N   0  0  0  0  0  0  0  0  0  0  0  0
    5.6750    0.5330   19.5210 C   0  0  0  0  0  0  0  0  0  0  0  0
    4.7410    1.5440   19.7790 C   0  0  0  0  0  0  0  0  0  0  0  0
    4.1750    2.2030   18.6810 C   0  0  0  0  0  0  0  0  0  0  0  0
    4.5730    1.8550   17.3830 C   0  0  0  0  0  0  0  0  0  0  0  0
    5.4330    0.8440   17.1230 N   0  0  0  0  0  0  0  0  0  0  0  0
    5.9740    0.2070   18.1790 C   0  0  0  0  0  0  0  0  0  0  0  0
    8.2340   -0.4260   21.8890 N   0  0  0  0  0  0  0  0  0  0  0  0
    9.6050   -0.3410   22.1980 C   0  0  0  0  0  0  0  0  0  0  0  0
   10.5270   -1.2040   21.5900 C   0  0  0  0  0  0  0  0  0  0  0  0
   11.9050   -1.0140   21.7800 C   0  0  0  0  0  0  0  0  0  0  0  0
   12.3540    0.0240   22.6100 C   0  0  0  0  0  0  0  0  0  0  0  0
   11.4260    0.8540   23.2640 C   0  0  0  0  0  0  0  0  0  0  0  0
   11.8970    1.8810   24.2670 C   0  0  0  0  0  0  0  0  0  0  0  0
   11.9200    3.2750   23.8090 N   0  0  0  0  0  0  0  0  0  0  0  0
   13.0470    3.9390   23.3340 C   0  0  0  0  0  0  0  0  0  0  0  0
   12.7040    5.2570   23.2210 C   0  0  0  0  0  0  0  0  0  0  0  0
   11.3460    5.3990   23.5860 C   0  0  0  0  0  0  0  0  0  0  0  0
   10.8620    4.1690   23.9380 C   0  0  0  0  0  0  0  0  0  0  0  0
   10.0520    0.6760   23.0480 C   0  0  0  0  0  0  0  0  0  0  0  0
  1  2  2  0
  2  3  1  0
  2 10  1  0
  3  4  1  0
  4  5  2  0
  4  9  1  0
  5  6  1  0
  6  7  2  0
  7  8  1  0
  8  9  2  0
 10 11  1  0
 11 22  1  0
 11 12  2  0
 12 13  1  0
 13 14  2  0
 14 15  1  0
 15 16  1  0
 15 22  2  0
 16 17  1  0
 17 18  1  0
 17 21  1  0
 18 19  2  0
 19 20  1  0
 20 21  2  0
M  END
>  <original SMILES>  (974) 
O=C(Nc1cccnc1)Nc1cccc(Cn2cccc2)c1

>  <AutoDock Predicted Affinity>  (974) 
-6.307675

>  <ref_pdb>  (974) 
x0434_0

>  <ref_mols>  (974) 
x0434_0

>  <creator>  (974) 
Will Poole

>  <energy minimised>  (974) 
True

$$$$
WPC2162_minimised.pdb
     RDKit          3D

 22 24  0  0  0  0  0  0  0  0999 V2000
    8.4410   -0.0650   19.6300 O   0  0  0  0  0  0  0  0  0  0  0  0
    7.7090   -0.2150   20.5890 C   0  0  0  0  0  0  0  0  0  0  0  0
    6.3510   -0.0920   20.5150 N   0  0  0  0  0  0  0  0  0  0  0  0
    5.6670    0.5100   19.4360 C   0  0  0  0  0  0  0  0  0  0  0  0
    4.7230    1.5090   19.7070 C   0  0  0  0  0  0  0  0  0  0  0  0
    4.1800    2.2020   18.6170 C   0  0  0  0  0  0  0  0  0  0  0  0
    4.6080    1.8950   17.3180 C   0  0  0  0  0  0  0  0  0  0  0  0
    5.4820    0.8990   17.0470 N   0  0  0  0  0  0  0  0  0  0  0  0
    6.0030    0.2320   18.0940 C   0  0  0  0  0  0  0  0  0  0  0  0
    8.1540   -0.4540   21.8560 N   0  0  0  0  0  0  0  0  0  0  0  0
    9.4890   -0.2540   22.2530 C   0  0  0  0  0  0  0  0  0  0  0  0
   10.5310   -0.9960   21.6810 C   0  0  0  0  0  0  0  0  0  0  0  0
   11.8660   -0.6960   21.9950 C   0  0  0  0  0  0  0  0  0  0  0  0
   12.1500    0.3360   22.9050 C   0  0  0  0  0  0  0  0  0  0  0  0
   11.1000    1.0530   23.5080 C   0  0  0  0  0  0  0  0  0  0  0  0
   11.3830    2.0840   24.5780 C   0  0  0  0  0  0  0  0  0  0  0  0
   11.6270    3.4520   24.1100 N   0  0  0  0  0  0  0  0  0  0  0  0
   12.7290    3.8930   23.4020 C   0  0  0  0  0  0  0  0  0  0  0  0
   12.5700    5.2450   23.3590 C   0  0  0  0  0  0  0  0  0  0  0  0
   11.3620    5.5740   24.0210 C   0  0  0  0  0  0  0  0  0  0  0  0
   10.8150    4.4770   24.5120 N   0  0  0  0  0  0  0  0  0  0  0  0
    9.7710    0.7620   23.1720 C   0  0  0  0  0  0  0  0  0  0  0  0
  1  2  2  0
  2  3  1  0
  2 10  1  0
  3  4  1  0
  4  5  2  0
  4  9  1  0
  5  6  1  0
  6  7  2  0
  7  8  1  0
  8  9  2  0
 10 11  1  0
 11 22  1  0
 11 12  2  0
 12 13  1  0
 13 14  2  0
 14 15  1  0
 15 16  1  0
 15 22  2  0
 16 17  1  0
 17 18  1  0
 17 21  1  0
 18 19  2  0
 19 20  1  0
 20 21  2  0
M  END
>  <original SMILES>  (975) 
O=C(Nc1cccnc1)Nc1cccc(Cn2cccn2)c1

>  <AutoDock Predicted Affinity>  (975) 
-6.37073

>  <ref_pdb>  (975) 
x0434_0

>  <ref_mols>  (975) 
x0434_0

>  <creator>  (975) 
Will Poole

>  <energy minimised>  (975) 
True

$$$$
WPC1735_minimised.pdb
     RDKit          3D

 24 26  0  0  0  0  0  0  0  0999 V2000
    8.5440   -0.0290   19.7220 O   0  0  0  0  0  0  0  0  0  0  0  0
    7.8960   -0.1650   20.7400 C   0  0  0  0  0  0  0  0  0  0  0  0
    6.5310   -0.0510   20.7530 N   0  0  0  0  0  0  0  0  0  0  0  0
    5.7750    0.4760   19.6760 C   0  0  0  0  0  0  0  0  0  0  0  0
    4.8410    1.4870   19.9340 C   0  0  0  0  0  0  0  0  0  0  0  0
    4.2370    2.1120   18.8360 C   0  0  0  0  0  0  0  0  0  0  0  0
    4.5960    1.7280   17.5350 C   0  0  0  0  0  0  0  0  0  0  0  0
    5.4520    0.7140   17.2770 N   0  0  0  0  0  0  0  0  0  0  0  0
    6.0330    0.1130   18.3340 C   0  0  0  0  0  0  0  0  0  0  0  0
    8.4640   -0.3890   21.9640 N   0  0  0  0  0  0  0  0  0  0  0  0
    9.8540   -0.2940   22.1810 C   0  0  0  0  0  0  0  0  0  0  0  0
   10.7240   -1.2060   21.5710 C   0  0  0  0  0  0  0  0  0  0  0  0
   12.1110   -1.0010   21.6250 C   0  0  0  0  0  0  0  0  0  0  0  0
   12.6230    0.1210   22.2920 C   0  0  0  0  0  0  0  0  0  0  0  0
   11.7560    1.0270   22.9310 C   0  0  0  0  0  0  0  0  0  0  0  0
   12.3480    2.1610   23.7520 C   0  0  0  0  0  0  0  0  0  0  0  0
   12.0430    3.5580   23.3890 N   0  0  0  0  0  0  0  0  0  0  0  0
   10.7710    4.1170   23.3280 C   0  0  0  0  0  0  0  0  0  0  0  0
   10.8910    5.4670   23.5240 C   0  0  0  0  0  0  0  0  0  0  0  0
   12.2320    5.7200   23.6840 N   0  0  0  0  0  0  0  0  0  0  0  0
   12.7600    6.9060   24.2490 O   0  0  0  0  0  0  0  0  0  0  0  0
   12.9810    4.5660   23.5470 C   0  0  0  0  0  0  0  0  0  0  0  0
   14.1910    4.4800   23.6690 O   0  0  0  0  0  0  0  0  0  0  0  0
   10.3690    0.7930   22.8970 C   0  0  0  0  0  0  0  0  0  0  0  0
  1  2  2  0
  2  3  1  0
  2 10  1  0
  3  4  1  0
  4  5  2  0
  4  9  1  0
  5  6  1  0
  6  7  2  0
  7  8  1  0
  8  9  2  0
 10 11  1  0
 11 24  1  0
 11 12  2  0
 12 13  1  0
 13 14  2  0
 14 15  1  0
 15 16  1  0
 15 24  2  0
 16 17  1  0
 17 18  1  0
 17 22  1  0
 18 19  2  0
 19 20  1  0
 20 21  1  0
 20 22  1  0
 22 23  2  0
M  END
>  <original SMILES>  (976) 
O=C(Nc1cccnc1)Nc1cccc(Cn2ccn(O)c2=O)c1

>  <AutoDock Predicted Affinity>  (976) 
-6.59757

>  <ref_pdb>  (976) 
x0434_0

>  <ref_mols>  (976) 
x0434_0

>  <creator>  (976) 
Will Poole

>  <energy minimised>  (976) 
True

$$$$
WPC2151_minimised.pdb
     RDKit          3D

 22 24  0  0  0  0  0  0  0  0999 V2000
    8.4460   -0.1010   19.6070 O   0  0  0  0  0  0  0  0  0  0  0  0
    7.7290   -0.2030   20.5820 C   0  0  0  0  0  0  0  0  0  0  0  0
    6.3700   -0.0710   20.5220 N   0  0  0  0  0  0  0  0  0  0  0  0
    5.6780    0.5150   19.4380 C   0  0  0  0  0  0  0  0  0  0  0  0
    4.7400    1.5210   19.7030 C   0  0  0  0  0  0  0  0  0  0  0  0
    4.1890    2.2000   18.6100 C   0  0  0  0  0  0  0  0  0  0  0  0
    4.6080    1.8780   17.3110 C   0  0  0  0  0  0  0  0  0  0  0  0
    5.4770    0.8770   17.0460 N   0  0  0  0  0  0  0  0  0  0  0  0
    6.0010    0.2180   18.0970 C   0  0  0  0  0  0  0  0  0  0  0  0
    8.1910   -0.3840   21.8530 N   0  0  0  0  0  0  0  0  0  0  0  0
    9.5350   -0.1850   22.2180 C   0  0  0  0  0  0  0  0  0  0  0  0
   10.5550   -0.9690   21.6620 C   0  0  0  0  0  0  0  0  0  0  0  0
   11.8990   -0.6810   21.9410 C   0  0  0  0  0  0  0  0  0  0  0  0
   12.2160    0.3830   22.8010 C   0  0  0  0  0  0  0  0  0  0  0  0
   11.1900    1.1440   23.3900 C   0  0  0  0  0  0  0  0  0  0  0  0
   11.5220    2.1870   24.4330 C   0  0  0  0  0  0  0  0  0  0  0  0
   11.7290    3.5570   23.9530 N   0  0  0  0  0  0  0  0  0  0  0  0
   12.8890    4.0750   23.4200 C   0  0  0  0  0  0  0  0  0  0  0  0
   12.7030    5.4300   23.3550 C   0  0  0  0  0  0  0  0  0  0  0  0
   11.4560    5.7650   23.8230 N   0  0  0  0  0  0  0  0  0  0  0  0
   10.8660    4.6210   24.1180 C   0  0  0  0  0  0  0  0  0  0  0  0
    9.8500    0.8630   23.0900 C   0  0  0  0  0  0  0  0  0  0  0  0
  1  2  2  0
  2  3  1  0
  2 10  1  0
  3  4  1  0
  4  5  2  0
  4  9  1  0
  5  6  1  0
  6  7  2  0
  7  8  1  0
  8  9  2  0
 10 11  1  0
 11 22  1  0
 11 12  2  0
 12 13  1  0
 13 14  2  0
 14 15  1  0
 15 16  1  0
 15 22  2  0
 16 17  1  0
 17 18  1  0
 17 21  1  0
 18 19  2  0
 19 20  1  0
 20 21  2  0
M  END
>  <original SMILES>  (977) 
O=C(Nc1cccnc1)Nc1cccc(Cn2ccnc2)c1

>  <AutoDock Predicted Affinity>  (977) 
-6.0697

>  <ref_pdb>  (977) 
x0434_0

>  <ref_mols>  (977) 
x0434_0

>  <creator>  (977) 
Will Poole

>  <energy minimised>  (977) 
True

$$$$
WPC2308_minimised.pdb
     RDKit          3D

 22 24  0  0  0  0  0  0  0  0999 V2000
    8.6540    0.1070   19.8310 O   0  0  0  0  0  0  0  0  0  0  0  0
    7.9240   -0.1590   20.7630 C   0  0  0  0  0  0  0  0  0  0  0  0
    6.5640   -0.2240   20.6440 N   0  0  0  0  0  0  0  0  0  0  0  0
    5.8560    0.3540   19.5650 C   0  0  0  0  0  0  0  0  0  0  0  0
    4.9100    1.3500   19.8340 C   0  0  0  0  0  0  0  0  0  0  0  0
    4.3500    2.0300   18.7450 C   0  0  0  0  0  0  0  0  0  0  0  0
    4.7640    1.7120   17.4440 C   0  0  0  0  0  0  0  0  0  0  0  0
    5.6460    0.7230   17.1740 N   0  0  0  0  0  0  0  0  0  0  0  0
    6.1880    0.0720   18.2230 C   0  0  0  0  0  0  0  0  0  0  0  0
    8.3600   -0.3180   22.0460 N   0  0  0  0  0  0  0  0  0  0  0  0
    9.5620    0.2480   22.5090 C   0  0  0  0  0  0  0  0  0  0  0  0
   10.8050   -0.3530   22.2630 C   0  0  0  0  0  0  0  0  0  0  0  0
   11.9810    0.2870   22.6910 C   0  0  0  0  0  0  0  0  0  0  0  0
   11.9080    1.5260   23.3540 C   0  0  0  0  0  0  0  0  0  0  0  0
   10.6600    2.1500   23.5620 C   0  0  0  0  0  0  0  0  0  0  0  0
   10.5170    3.5160   24.2290 C   0  0  0  0  0  0  0  0  0  0  0  0
   11.5510    4.5080   23.9180 N   0  0  0  0  0  0  0  0  0  0  0  0
   12.3520    4.6080   22.8070 C   0  0  0  0  0  0  0  0  0  0  0  0
   13.1750    5.6600   23.0780 C   0  0  0  0  0  0  0  0  0  0  0  0
   12.7920    6.2130   24.2730 N   0  0  0  0  0  0  0  0  0  0  0  0
   11.8070    5.5270   24.7760 N   0  0  0  0  0  0  0  0  0  0  0  0
    9.4940    1.4910   23.1480 C   0  0  0  0  0  0  0  0  0  0  0  0
  1  2  2  0
  2  3  1  0
  2 10  1  0
  3  4  1  0
  4  5  2  0
  4  9  1  0
  5  6  1  0
  6  7  2  0
  7  8  1  0
  8  9  2  0
 10 11  1  0
 11 22  1  0
 11 12  2  0
 12 13  1  0
 13 14  2  0
 14 15  1  0
 15 16  1  0
 15 22  2  0
 16 17  1  0
 17 18  1  0
 17 21  1  0
 18 19  2  0
 19 20  1  0
 20 21  2  0
M  END
>  <original SMILES>  (978) 
O=C(Nc1cccnc1)Nc1cccc(Cn2ccnn2)c1

>  <AutoDock Predicted Affinity>  (978) 
-6.29552

>  <ref_pdb>  (978) 
x0434_0

>  <ref_mols>  (978) 
x0434_0

>  <creator>  (978) 
Will Poole

>  <energy minimised>  (978) 
True

$$$$
WPC2125_minimised.pdb
     RDKit          3D

 23 25  0  0  0  0  0  0  0  0999 V2000
    8.6500   -0.0740   19.6360 O   0  0  0  0  0  0  0  0  0  0  0  0
    8.0080   -0.2400   20.6530 C   0  0  0  0  0  0  0  0  0  0  0  0
    6.6430   -0.1330   20.6840 N   0  0  0  0  0  0  0  0  0  0  0  0
    5.8700    0.4120   19.6290 C   0  0  0  0  0  0  0  0  0  0  0  0
    4.9300    1.4090   19.9190 C   0  0  0  0  0  0  0  0  0  0  0  0
    4.3010    2.0450   18.8410 C   0  0  0  0  0  0  0  0  0  0  0  0
    4.6420    1.6850   17.5290 C   0  0  0  0  0  0  0  0  0  0  0  0
    5.5060    0.6870   17.2410 N   0  0  0  0  0  0  0  0  0  0  0  0
    6.1120    0.0770   18.2790 C   0  0  0  0  0  0  0  0  0  0  0  0
    8.5790   -0.4970   21.8660 N   0  0  0  0  0  0  0  0  0  0  0  0
    9.9630   -0.3920   22.1120 C   0  0  0  0  0  0  0  0  0  0  0  0
   10.8410   -1.4070   21.7110 C   0  0  0  0  0  0  0  0  0  0  0  0
   12.2230   -1.2450   21.8870 C   0  0  0  0  0  0  0  0  0  0  0  0
   12.7210   -0.0760   22.4810 C   0  0  0  0  0  0  0  0  0  0  0  0
   11.8460    0.9420   22.9030 C   0  0  0  0  0  0  0  0  0  0  0  0
   12.4400    2.1600   23.6040 C   0  0  0  0  0  0  0  0  0  0  0  0
   11.5960    3.3630   23.6670 N   0  0  0  0  0  0  0  0  0  0  0  0
   10.4530    3.4980   24.4210 C   0  0  0  0  0  0  0  0  0  0  0  0
    9.8390    4.5840   24.0810 N   0  0  0  0  0  0  0  0  0  0  0  0
   10.5770    5.1670   23.0860 N   0  0  0  0  0  0  0  0  0  0  0  0
   11.7330    4.4630   22.8590 C   0  0  0  0  0  0  0  0  0  0  0  0
   12.9490    4.8370   21.7830 S   0  0  0  0  0  0  0  0  0  0  0  0
   10.4610    0.7760   22.7000 C   0  0  0  0  0  0  0  0  0  0  0  0
  1  2  2  0
  2  3  1  0
  2 10  1  0
  3  4  1  0
  4  5  2  0
  4  9  1  0
  5  6  1  0
  6  7  2  0
  7  8  1  0
  8  9  2  0
 10 11  1  0
 11 23  1  0
 11 12  2  0
 12 13  1  0
 13 14  2  0
 14 15  1  0
 15 16  1  0
 15 23  2  0
 16 17  1  0
 17 18  1  0
 17 21  1  0
 18 19  2  0
 19 20  1  0
 20 21  1  0
 21 22  2  0
M  END
>  <original SMILES>  (979) 
O=C(Nc1cccnc1)Nc1cccc(Cn2cn[nH]c2=S)c1

>  <AutoDock Predicted Affinity>  (979) 
-6.09521

>  <ref_pdb>  (979) 
x0434_0

>  <ref_mols>  (979) 
x0434_0

>  <creator>  (979) 
Will Poole

>  <energy minimised>  (979) 
True

$$$$
WPC1494_minimised.pdb
     RDKit          3D

 22 24  0  0  0  0  0  0  0  0999 V2000
    8.4080   -0.1450   19.6340 O   0  0  0  0  0  0  0  0  0  0  0  0
    7.7010   -0.2570   20.6160 C   0  0  0  0  0  0  0  0  0  0  0  0
    6.3470   -0.0780   20.5790 N   0  0  0  0  0  0  0  0  0  0  0  0
    5.6480    0.5150   19.5010 C   0  0  0  0  0  0  0  0  0  0  0  0
    4.7190    1.5260   19.7710 C   0  0  0  0  0  0  0  0  0  0  0  0
    4.1560    2.2020   18.6810 C   0  0  0  0  0  0  0  0  0  0  0  0
    4.5530    1.8650   17.3780 C   0  0  0  0  0  0  0  0  0  0  0  0
    5.4120    0.8570   17.1080 N   0  0  0  0  0  0  0  0  0  0  0  0
    5.9500    0.2060   18.1570 C   0  0  0  0  0  0  0  0  0  0  0  0
    8.1780   -0.5140   21.8690 N   0  0  0  0  0  0  0  0  0  0  0  0
    9.5400   -0.4100   22.2050 C   0  0  0  0  0  0  0  0  0  0  0  0
   10.4870   -1.2710   21.6330 C   0  0  0  0  0  0  0  0  0  0  0  0
   11.8570   -1.0590   21.8530 C   0  0  0  0  0  0  0  0  0  0  0  0
   12.2750    0.0060   22.6660 C   0  0  0  0  0  0  0  0  0  0  0  0
   11.3210    0.8410   23.2750 C   0  0  0  0  0  0  0  0  0  0  0  0
   11.7450    1.9400   24.2240 C   0  0  0  0  0  0  0  0  0  0  0  0
   11.5110    3.3040   23.7410 N   0  0  0  0  0  0  0  0  0  0  0  0
   12.4110    4.1720   23.1720 C   0  0  0  0  0  0  0  0  0  0  0  0
   11.8260    5.3330   22.9810 N   0  0  0  0  0  0  0  0  0  0  0  0
   10.5260    5.1130   23.3700 C   0  0  0  0  0  0  0  0  0  0  0  0
   10.3110    3.9190   23.8960 N   0  0  0  0  0  0  0  0  0  0  0  0
    9.9550    0.6330   23.0370 C   0  0  0  0  0  0  0  0  0  0  0  0
  1  2  2  0
  2  3  1  0
  2 10  1  0
  3  4  1  0
  4  5  2  0
  4  9  1  0
  5  6  1  0
  6  7  2  0
  7  8  1  0
  8  9  2  0
 10 11  1  0
 11 22  1  0
 11 12  2  0
 12 13  1  0
 13 14  2  0
 14 15  1  0
 15 16  1  0
 15 22  2  0
 16 17  1  0
 17 18  1  0
 17 21  1  0
 18 19  2  0
 19 20  1  0
 20 21  2  0
M  END
>  <original SMILES>  (980) 
O=C(Nc1cccnc1)Nc1cccc(Cn2cncn2)c1

>  <AutoDock Predicted Affinity>  (980) 
-5.9013

>  <ref_pdb>  (980) 
x0434_0

>  <ref_mols>  (980) 
x0434_0

>  <creator>  (980) 
Will Poole

>  <energy minimised>  (980) 
True

$$$$
WPC1879_minimised.pdb
     RDKit          3D

 17 18  0  0  0  0  0  0  0  0999 V2000
    8.7180    0.0450   19.8120 O   0  0  0  0  0  0  0  0  0  0  0  0
    8.0640   -0.0570   20.8290 C   0  0  0  0  0  0  0  0  0  0  0  0
    6.6960    0.0030   20.8230 N   0  0  0  0  0  0  0  0  0  0  0  0
    5.9360    0.4850   19.7290 C   0  0  0  0  0  0  0  0  0  0  0  0
    4.9870    1.4890   19.9590 C   0  0  0  0  0  0  0  0  0  0  0  0
    4.3750    2.0760   18.8450 C   0  0  0  0  0  0  0  0  0  0  0  0
    4.7420    1.6650   17.5550 C   0  0  0  0  0  0  0  0  0  0  0  0
    5.6140    0.6580   17.3240 N   0  0  0  0  0  0  0  0  0  0  0  0
    6.2030    0.0920   18.3970 C   0  0  0  0  0  0  0  0  0  0  0  0
    8.6210   -0.1760   22.0700 N   0  0  0  0  0  0  0  0  0  0  0  0
    9.9910    0.0320   22.3270 C   0  0  0  0  0  0  0  0  0  0  0  0
   10.9540   -0.8910   21.8890 C   0  0  0  0  0  0  0  0  0  0  0  0
   12.3220   -0.6240   22.0690 C   0  0  0  0  0  0  0  0  0  0  0  0
   12.7230    0.5720   22.6900 C   0  0  0  0  0  0  0  0  0  0  0  0
   11.7550    1.4930   23.1190 C   0  0  0  0  0  0  0  0  0  0  0  0
   12.1330    2.6630   23.6670 F   0  0  0  0  0  0  0  0  0  0  0  0
   10.3920    1.2230   22.9450 C   0  0  0  0  0  0  0  0  0  0  0  0
  1  2  2  0
  2 10  1  0
  2  3  1  0
  3  4  1  0
  4  5  2  0
  4  9  1  0
  5  6  1  0
  6  7  2  0
  7  8  1  0
  8  9  2  0
 10 11  1  0
 11 12  2  0
 11 17  1  0
 12 13  1  0
 13 14  2  0
 14 15  1  0
 15 16  1  0
 15 17  2  0
M  END
>  <original SMILES>  (981) 
O=C(Nc1cccnc1)Nc1cccc(F)c1

>  <AutoDock Predicted Affinity>  (981) 
-5.56242

>  <ref_pdb>  (981) 
x0434_0

>  <ref_mols>  (981) 
x0434_0

>  <creator>  (981) 
Will Poole

>  <energy minimised>  (981) 
True

$$$$
WPC2625_minimised.pdb
     RDKit          3D

 17 18  0  0  0  0  0  0  0  0999 V2000
    8.7910    0.0950   19.8610 O   0  0  0  0  0  0  0  0  0  0  0  0
    8.1710   -0.0170   20.8970 C   0  0  0  0  0  0  0  0  0  0  0  0
    6.8030    0.0510   20.9260 N   0  0  0  0  0  0  0  0  0  0  0  0
    6.0130    0.5020   19.8360 C   0  0  0  0  0  0  0  0  0  0  0  0
    5.0550    1.4980   20.0600 C   0  0  0  0  0  0  0  0  0  0  0  0
    4.4160    2.0540   18.9440 C   0  0  0  0  0  0  0  0  0  0  0  0
    4.7630    1.6180   17.6570 C   0  0  0  0  0  0  0  0  0  0  0  0
    5.6380    0.6130   17.4310 N   0  0  0  0  0  0  0  0  0  0  0  0
    6.2550    0.0800   18.5070 C   0  0  0  0  0  0  0  0  0  0  0  0
    8.7790   -0.1730   22.1130 N   0  0  0  0  0  0  0  0  0  0  0  0
   10.1740   -0.0700   22.2960 C   0  0  0  0  0  0  0  0  0  0  0  0
   11.0210   -1.1140   21.8910 C   0  0  0  0  0  0  0  0  0  0  0  0
   12.4150   -0.9580   21.9560 C   0  0  0  0  0  0  0  0  0  0  0  0
   12.9620    0.2490   22.4230 C   0  0  0  0  0  0  0  0  0  0  0  0
   12.1120    1.2840   22.8350 C   0  0  0  0  0  0  0  0  0  0  0  0
   12.6380    2.4730   23.2150 O   0  0  0  0  0  0  0  0  0  0  0  0
   10.7230    1.1260   22.7790 C   0  0  0  0  0  0  0  0  0  0  0  0
  1  2  2  0
  2 10  1  0
  2  3  1  0
  3  4  1  0
  4  5  2  0
  4  9  1  0
  5  6  1  0
  6  7  2  0
  7  8  1  0
  8  9  2  0
 10 11  1  0
 11 12  2  0
 11 17  1  0
 12 13  1  0
 13 14  2  0
 14 15  1  0
 15 16  1  0
 15 17  2  0
M  END
>  <original SMILES>  (982) 
O=C(Nc1cccnc1)Nc1cccc(O)c1

>  <AutoDock Predicted Affinity>  (982) 
-5.11535

>  <ref_pdb>  (982) 
x0434_0

>  <ref_mols>  (982) 
x0434_0

>  <creator>  (982) 
Will Poole

>  <energy minimised>  (982) 
True

$$$$
WPC1544_minimised.pdb
     RDKit          3D

 17 18  0  0  0  0  0  0  0  0999 V2000
    8.7750    0.2100   19.9150 O   0  0  0  0  0  0  0  0  0  0  0  0
    8.1080    0.0360   20.9120 C   0  0  0  0  0  0  0  0  0  0  0  0
    6.7410   -0.0240   20.8730 N   0  0  0  0  0  0  0  0  0  0  0  0
    5.9800    0.4390   19.7700 C   0  0  0  0  0  0  0  0  0  0  0  0
    5.0060    1.4210   19.9900 C   0  0  0  0  0  0  0  0  0  0  0  0
    4.4010    2.0050   18.8710 C   0  0  0  0  0  0  0  0  0  0  0  0
    4.7960    1.6080   17.5850 C   0  0  0  0  0  0  0  0  0  0  0  0
    5.6920    0.6220   17.3610 N   0  0  0  0  0  0  0  0  0  0  0  0
    6.2790    0.0650   18.4400 C   0  0  0  0  0  0  0  0  0  0  0  0
    8.6470   -0.0350   22.1650 N   0  0  0  0  0  0  0  0  0  0  0  0
    9.9650    0.3800   22.4460 C   0  0  0  0  0  0  0  0  0  0  0  0
   11.0430   -0.5100   22.3320 C   0  0  0  0  0  0  0  0  0  0  0  0
   12.3540   -0.0450   22.5330 C   0  0  0  0  0  0  0  0  0  0  0  0
   12.5790    1.3060   22.8500 C   0  0  0  0  0  0  0  0  0  0  0  0
   11.5020    2.2050   22.9310 C   0  0  0  0  0  0  0  0  0  0  0  0
   11.7730    3.9460   23.1740 S   0  0  0  0  0  0  0  0  0  0  0  0
   10.1980    1.7320   22.7350 C   0  0  0  0  0  0  0  0  0  0  0  0
  1  2  2  0
  2 10  1  0
  2  3  1  0
  3  4  1  0
  4  5  2  0
  4  9  1  0
  5  6  1  0
  6  7  2  0
  7  8  1  0
  8  9  2  0
 10 11  1  0
 11 12  2  0
 11 17  1  0
 12 13  1  0
 13 14  2  0
 14 15  1  0
 15 16  1  0
 15 17  2  0
M  END
>  <original SMILES>  (983) 
O=C(Nc1cccnc1)Nc1cccc(S)c1

>  <AutoDock Predicted Affinity>  (983) 
-5.31979

>  <ref_pdb>  (983) 
x0434_0

>  <ref_mols>  (983) 
x0434_0

>  <creator>  (983) 
Will Poole

>  <energy minimised>  (983) 
True

$$$$
WPC2347_minimised.pdb
     RDKit          3D

 23 24  0  0  0  0  0  0  0  0999 V2000
    8.7500    0.1910   19.8650 O   0  0  0  0  0  0  0  0  0  0  0  0
    8.1000   -0.1160   20.8410 C   0  0  0  0  0  0  0  0  0  0  0  0
    6.7370   -0.2250   20.7970 N   0  0  0  0  0  0  0  0  0  0  0  0
    5.9640    0.2940   19.7300 C   0  0  0  0  0  0  0  0  0  0  0  0
    5.0200    1.2930   19.9990 C   0  0  0  0  0  0  0  0  0  0  0  0
    4.4100    1.9250   18.9080 C   0  0  0  0  0  0  0  0  0  0  0  0
    4.7670    1.5530   17.6030 C   0  0  0  0  0  0  0  0  0  0  0  0
    5.6450    0.5600   17.3350 N   0  0  0  0  0  0  0  0  0  0  0  0
    6.2400   -0.0400   18.3860 C   0  0  0  0  0  0  0  0  0  0  0  0
    8.6430   -0.2940   22.0820 N   0  0  0  0  0  0  0  0  0  0  0  0
    9.9160    0.1930   22.4430 C   0  0  0  0  0  0  0  0  0  0  0  0
   11.0970   -0.4030   21.9710 C   0  0  0  0  0  0  0  0  0  0  0  0
   12.3460    0.1610   22.2910 C   0  0  0  0  0  0  0  0  0  0  0  0
   12.4130    1.3240   23.0800 C   0  0  0  0  0  0  0  0  0  0  0  0
   11.2270    1.9230   23.5360 C   0  0  0  0  0  0  0  0  0  0  0  0
   11.2190    3.3740   24.5600 S   0  0  0  0  0  0  0  0  0  0  0  0
   12.1680    4.6970   23.6920 C   0  0  0  0  0  0  0  0  0  0  0  0
   13.4990    4.4650   23.7070 F   0  0  0  0  0  0  0  0  0  0  0  0
   11.8330    4.8110   22.3920 F   0  0  0  0  0  0  0  0  0  0  0  0
   11.8490    6.0090   24.4550 C   0  0  0  0  0  0  0  0  0  0  0  0
   10.6400    6.4960   24.0890 F   0  0  0  0  0  0  0  0  0  0  0  0
   12.7580    6.9800   24.2280 F   0  0  0  0  0  0  0  0  0  0  0  0
    9.9890    1.3510   23.2250 C   0  0  0  0  0  0  0  0  0  0  0  0
  1  2  2  0
  2 10  1  0
  2  3  1  0
  3  4  1  0
  4  5  2  0
  4  9  1  0
  5  6  1  0
  6  7  2  0
  7  8  1  0
  8  9  2  0
 10 11  1  0
 11 12  2  0
 11 23  1  0
 12 13  1  0
 13 14  2  0
 14 15  1  0
 15 16  1  0
 15 23  2  0
 16 17  1  0
 17 20  1  0
 17 18  1  0
 17 19  1  0
 20 21  1  0
 20 22  1  0
M  END
>  <original SMILES>  (984) 
O=C(Nc1cccnc1)Nc1cccc(SC(F)(F)C(F)F)c1

>  <AutoDock Predicted Affinity>  (984) 
-6.117748

>  <ref_pdb>  (984) 
x0434_0

>  <ref_mols>  (984) 
x0434_0

>  <creator>  (984) 
Will Poole

>  <energy minimised>  (984) 
True

$$$$
WPC2207_minimised.pdb
     RDKit          3D

 21 22  0  0  0  0  0  0  0  0999 V2000
    8.6850    0.2890   20.0190 O   0  0  0  0  0  0  0  0  0  0  0  0
    7.9600    0.1240   20.9790 C   0  0  0  0  0  0  0  0  0  0  0  0
    6.6020    0.0080   20.8650 N   0  0  0  0  0  0  0  0  0  0  0  0
    5.8830    0.4620   19.7340 C   0  0  0  0  0  0  0  0  0  0  0  0
    4.8990    1.4400   19.9200 C   0  0  0  0  0  0  0  0  0  0  0  0
    4.3380    2.0270   18.7790 C   0  0  0  0  0  0  0  0  0  0  0  0
    4.7770    1.6280   17.5100 C   0  0  0  0  0  0  0  0  0  0  0  0
    5.6850    0.6450   17.3170 N   0  0  0  0  0  0  0  0  0  0  0  0
    6.2370    0.0910   18.4170 C   0  0  0  0  0  0  0  0  0  0  0  0
    8.4090    0.1200   22.2700 N   0  0  0  0  0  0  0  0  0  0  0  0
    9.6650    0.6380   22.6520 C   0  0  0  0  0  0  0  0  0  0  0  0
   10.8590    0.0740   22.1700 C   0  0  0  0  0  0  0  0  0  0  0  0
   12.0920    0.6690   22.4860 C   0  0  0  0  0  0  0  0  0  0  0  0
   12.1280    1.8390   23.2650 C   0  0  0  0  0  0  0  0  0  0  0  0
   10.9320    2.4050   23.7390 C   0  0  0  0  0  0  0  0  0  0  0  0
   10.9490    3.8650   24.7600 S   0  0  0  0  0  0  0  0  0  0  0  0
   11.2020    5.3030   23.6410 C   0  0  0  0  0  0  0  0  0  0  0  0
   12.1590    5.0850   22.7150 F   0  0  0  0  0  0  0  0  0  0  0  0
   11.5970    6.3760   24.3590 F   0  0  0  0  0  0  0  0  0  0  0  0
   10.0640    5.6700   23.0190 F   0  0  0  0  0  0  0  0  0  0  0  0
    9.7050    1.7950   23.4430 C   0  0  0  0  0  0  0  0  0  0  0  0
  1  2  2  0
  2 10  1  0
  2  3  1  0
  3  4  1  0
  4  5  2  0
  4  9  1  0
  5  6  1  0
  6  7  2  0
  7  8  1  0
  8  9  2  0
 10 11  1  0
 11 12  2  0
 11 21  1  0
 12 13  1  0
 13 14  2  0
 14 15  1  0
 15 16  1  0
 15 21  2  0
 16 17  1  0
 17 18  1  0
 17 19  1  0
 17 20  1  0
M  END
>  <original SMILES>  (985) 
O=C(Nc1cccnc1)Nc1cccc(SC(F)(F)F)c1

>  <AutoDock Predicted Affinity>  (985) 
-5.69026

>  <ref_pdb>  (985) 
x0434_0

>  <ref_mols>  (985) 
x0434_0

>  <creator>  (985) 
Will Poole

>  <energy minimised>  (985) 
True

$$$$
WPC2533_minimised.pdb
     RDKit          3D

 20 21  0  0  0  0  0  0  0  0999 V2000
    8.7170    0.2090   19.9390 O   0  0  0  0  0  0  0  0  0  0  0  0
    8.0290    0.0670   20.9280 C   0  0  0  0  0  0  0  0  0  0  0  0
    6.6630    0.0200   20.8690 N   0  0  0  0  0  0  0  0  0  0  0  0
    5.9160    0.4770   19.7560 C   0  0  0  0  0  0  0  0  0  0  0  0
    4.9440    1.4630   19.9600 C   0  0  0  0  0  0  0  0  0  0  0  0
    4.3490    2.0370   18.8300 C   0  0  0  0  0  0  0  0  0  0  0  0
    4.7500    1.6240   17.5520 C   0  0  0  0  0  0  0  0  0  0  0  0
    5.6470    0.6340   17.3440 N   0  0  0  0  0  0  0  0  0  0  0  0
    6.2260    0.0870   18.4330 C   0  0  0  0  0  0  0  0  0  0  0  0
    8.5370    0.0160   22.1940 N   0  0  0  0  0  0  0  0  0  0  0  0
    9.8380    0.4460   22.5210 C   0  0  0  0  0  0  0  0  0  0  0  0
   10.9680   -0.3080   22.1670 C   0  0  0  0  0  0  0  0  0  0  0  0
   12.2540    0.1810   22.4580 C   0  0  0  0  0  0  0  0  0  0  0  0
   12.4060    1.4270   23.0920 C   0  0  0  0  0  0  0  0  0  0  0  0
   11.2710    2.1950   23.4090 C   0  0  0  0  0  0  0  0  0  0  0  0
   11.3960    3.8040   24.1580 S   0  0  0  0  0  0  0  0  0  0  0  0
   12.6980    4.6860   23.2030 C   0  0  0  0  0  0  0  0  0  0  0  0
   12.9880    5.8480   23.8190 F   0  0  0  0  0  0  0  0  0  0  0  0
   12.2980    5.0070   21.9610 F   0  0  0  0  0  0  0  0  0  0  0  0
    9.9930    1.6930   23.1370 C   0  0  0  0  0  0  0  0  0  0  0  0
  1  2  2  0
  2 10  1  0
  2  3  1  0
  3  4  1  0
  4  5  2  0
  4  9  1  0
  5  6  1  0
  6  7  2  0
  7  8  1  0
  8  9  2  0
 10 11  1  0
 11 12  2  0
 11 20  1  0
 12 13  1  0
 13 14  2  0
 14 15  1  0
 15 16  1  0
 15 20  2  0
 16 17  1  0
 17 18  1  0
 17 19  1  0
M  END
>  <original SMILES>  (986) 
O=C(Nc1cccnc1)Nc1cccc(SC(F)F)c1

>  <AutoDock Predicted Affinity>  (986) 
-5.66037

>  <ref_pdb>  (986) 
x0434_0

>  <ref_mols>  (986) 
x0434_0

>  <creator>  (986) 
Will Poole

>  <energy minimised>  (986) 
True

$$$$
WPC1243_minimised.pdb
     RDKit          3D

 21 23  0  0  1  0  0  0  0  0999 V2000
    8.5760    0.0690   19.7600 O   0  0  0  0  0  0  0  0  0  0  0  0
    7.8850   -0.3170   20.6800 C   0  0  0  0  0  0  0  0  0  0  0  0
    6.5260   -0.4330   20.5770 N   0  0  0  0  0  0  0  0  0  0  0  0
    5.7980    0.2000   19.5420 C   0  0  0  0  0  0  0  0  0  0  0  0
    4.8790    1.2050   19.8690 C   0  0  0  0  0  0  0  0  0  0  0  0
    4.3270    1.9510   18.8190 C   0  0  0  0  0  0  0  0  0  0  0  0
    4.7170    1.6800   17.4980 C   0  0  0  0  0  0  0  0  0  0  0  0
    5.5750    0.6880   17.1750 N   0  0  0  0  0  0  0  0  0  0  0  0
    6.1120   -0.0240   18.1860 C   0  0  0  0  0  0  0  0  0  0  0  0
    8.3610   -0.5520   21.9370 N   0  0  0  0  0  0  0  0  0  0  0  0
    9.4880    0.1340   22.4180 C   0  0  0  0  0  0  0  0  0  0  0  0
   10.7740   -0.4240   22.3790 C   0  0  0  0  0  0  0  0  0  0  0  0
   11.8780    0.3530   22.7730 C   0  0  0  0  0  0  0  0  0  0  0  0
   11.6890    1.6800   23.2010 C   0  0  0  0  0  0  0  0  0  0  0  0
   10.3970    2.2380   23.2270 C   0  0  0  0  0  0  0  0  0  0  0  0
   10.0570    3.9300   23.6800 S   0  0  0  0  0  0  0  0  0  0  0  0
   11.6590    4.5910   24.2490 C   0  0  1  0  0  0  0  0  0  0  0  0
   12.5370    5.0870   23.1240 C   0  0  0  0  0  0  0  0  0  0  0  0
   11.7900    6.0730   24.0040 C   0  0  2  0  0  0  0  0  0  0  0  0
   12.7500    6.0990   25.0200 O   0  0  0  0  0  0  0  0  0  0  0  0
    9.3060    1.4570   22.8370 C   0  0  0  0  0  0  0  0  0  0  0  0
  1  2  2  0
  2  3  1  0
  2 10  1  0
  3  4  1  0
  4  5  2  0
  4  9  1  0
  5  6  1  0
  6  7  2  0
  7  8  1  0
  8  9  2  0
 10 11  1  0
 11 21  1  0
 11 12  2  0
 12 13  1  0
 13 14  2  0
 14 15  1  0
 15 16  1  0
 15 21  2  0
 17 16  1  6
 17 18  1  0
 17 19  1  0
 18 19  1  0
 19 20  1  1
M  END
>  <original SMILES>  (987) 
O=C(Nc1cccnc1)Nc1cccc(SC2CC2O)c1

>  <AutoDock Predicted Affinity>  (987) 
-5.830497

>  <ref_pdb>  (987) 
x0434_0

>  <ref_mols>  (987) 
x0434_0

>  <creator>  (987) 
Will Poole

>  <energy minimised>  (987) 
True

$$$$
WPC1999_minimised.pdb
     RDKit          3D

 21 23  0  0  0  0  0  0  0  0999 V2000
    8.6660    0.2150   19.9060 O   0  0  0  0  0  0  0  0  0  0  0  0
    7.9930   -0.2270   20.8150 C   0  0  0  0  0  0  0  0  0  0  0  0
    6.6340   -0.3430   20.7190 N   0  0  0  0  0  0  0  0  0  0  0  0
    5.8910    0.2480   19.6700 C   0  0  0  0  0  0  0  0  0  0  0  0
    4.9520    1.2430   19.9700 C   0  0  0  0  0  0  0  0  0  0  0  0
    4.3740    1.9390   18.9000 C   0  0  0  0  0  0  0  0  0  0  0  0
    4.7550    1.6280   17.5850 C   0  0  0  0  0  0  0  0  0  0  0  0
    5.6300    0.6420   17.2860 N   0  0  0  0  0  0  0  0  0  0  0  0
    6.1960   -0.0170   18.3170 C   0  0  0  0  0  0  0  0  0  0  0  0
    8.5000   -0.5740   22.0340 N   0  0  0  0  0  0  0  0  0  0  0  0
    9.7570   -0.1330   22.4890 C   0  0  0  0  0  0  0  0  0  0  0  0
   10.9530   -0.6740   21.9900 C   0  0  0  0  0  0  0  0  0  0  0  0
   12.1880   -0.1120   22.3640 C   0  0  0  0  0  0  0  0  0  0  0  0
   12.2210    0.9940   23.2330 C   0  0  0  0  0  0  0  0  0  0  0  0
   11.0200    1.5270   23.7260 C   0  0  0  0  0  0  0  0  0  0  0  0
   10.9910    2.9950   24.7170 S   0  0  0  0  0  0  0  0  0  0  0  0
   11.1120    4.2960   23.4170 C   0  0  0  0  0  0  0  0  0  0  0  0
   12.5280    4.8720   23.0910 C   0  0  0  0  0  0  0  0  0  0  0  0
   12.2420    5.9110   24.2230 C   0  0  0  0  0  0  0  0  0  0  0  0
   10.7370    5.7500   23.8310 C   0  0  0  0  0  0  0  0  0  0  0  0
    9.7950    0.9590   23.3610 C   0  0  0  0  0  0  0  0  0  0  0  0
  1  2  2  0
  2  3  1  0
  2 10  1  0
  3  4  1  0
  4  5  2  0
  4  9  1  0
  5  6  1  0
  6  7  2  0
  7  8  1  0
  8  9  2  0
 10 11  1  0
 11 21  1  0
 11 12  2  0
 12 13  1  0
 13 14  2  0
 14 15  1  0
 15 16  1  0
 15 21  2  0
 16 17  1  0
 17 18  1  0
 17 20  1  0
 18 19  1  0
 19 20  1  0
M  END
>  <original SMILES>  (988) 
O=C(Nc1cccnc1)Nc1cccc(SC2CCC2)c1

>  <AutoDock Predicted Affinity>  (988) 
-5.797657

>  <ref_pdb>  (988) 
x0434_0

>  <ref_mols>  (988) 
x0434_0

>  <creator>  (988) 
Will Poole

>  <energy minimised>  (988) 
True

$$$$
WPC2292_minimised.pdb
     RDKit          3D

 22 24  0  0  0  0  0  0  0  0999 V2000
    8.5960    0.1340   19.7630 O   0  0  0  0  0  0  0  0  0  0  0  0
    7.9450   -0.0910   20.7630 C   0  0  0  0  0  0  0  0  0  0  0  0
    6.5790   -0.0230   20.7690 N   0  0  0  0  0  0  0  0  0  0  0  0
    5.8180    0.4960   19.6930 C   0  0  0  0  0  0  0  0  0  0  0  0
    4.8720    1.4970   19.9460 C   0  0  0  0  0  0  0  0  0  0  0  0
    4.2690    2.1150   18.8430 C   0  0  0  0  0  0  0  0  0  0  0  0
    4.6380    1.7310   17.5450 C   0  0  0  0  0  0  0  0  0  0  0  0
    5.5050    0.7260   17.2920 N   0  0  0  0  0  0  0  0  0  0  0  0
    6.0880    0.1340   18.3540 C   0  0  0  0  0  0  0  0  0  0  0  0
    8.5110   -0.3910   21.9690 N   0  0  0  0  0  0  0  0  0  0  0  0
    9.9020   -0.3750   22.1790 C   0  0  0  0  0  0  0  0  0  0  0  0
   10.6930   -1.4310   21.7040 C   0  0  0  0  0  0  0  0  0  0  0  0
   12.0920   -1.3500   21.7790 C   0  0  0  0  0  0  0  0  0  0  0  0
   12.6950   -0.2150   22.3370 C   0  0  0  0  0  0  0  0  0  0  0  0
   11.9020    0.8250   22.8380 C   0  0  0  0  0  0  0  0  0  0  0  0
   12.7190    2.2120   23.5730 S   0  0  0  0  0  0  0  0  0  0  0  0
   11.8990    3.7220   22.9140 C   0  0  0  0  0  0  0  0  0  0  0  0
   12.8860    4.9080   22.9320 C   0  0  0  0  0  0  0  0  0  0  0  0
   12.4580    5.7930   24.1120 C   0  0  0  0  0  0  0  0  0  0  0  0
   10.9420    5.5900   24.2220 C   0  0  0  0  0  0  0  0  0  0  0  0
   10.6870    4.1390   23.7780 C   0  0  0  0  0  0  0  0  0  0  0  0
   10.5040    0.7500   22.7570 C   0  0  0  0  0  0  0  0  0  0  0  0
  1  2  2  0
  2  3  1  0
  2 10  1  0
  3  4  1  0
  4  5  2  0
  4  9  1  0
  5  6  1  0
  6  7  2  0
  7  8  1  0
  8  9  2  0
 10 11  1  0
 11 22  1  0
 11 12  2  0
 12 13  1  0
 13 14  2  0
 14 15  1  0
 15 16  1  0
 15 22  2  0
 16 17  1  0
 17 18  1  0
 17 21  1  0
 18 19  1  0
 19 20  1  0
 20 21  1  0
M  END
>  <original SMILES>  (989) 
O=C(Nc1cccnc1)Nc1cccc(SC2CCCC2)c1

>  <AutoDock Predicted Affinity>  (989) 
-6.085078

>  <ref_pdb>  (989) 
x0434_0

>  <ref_mols>  (989) 
x0434_0

>  <creator>  (989) 
Will Poole

>  <energy minimised>  (989) 
True

$$$$
WPC2158_minimised.pdb
     RDKit          3D

 23 25  0  0  1  0  0  0  0  0999 V2000
    8.8550    1.1090   20.5490 O   0  0  0  0  0  0  0  0  0  0  0  0
    8.6340   -0.0700   20.7320 C   0  0  0  0  0  0  0  0  0  0  0  0
    7.5140   -0.6840   20.2450 N   0  0  0  0  0  0  0  0  0  0  0  0
    6.5530   -0.0230   19.4380 C   0  0  0  0  0  0  0  0  0  0  0  0
    5.8440    1.0770   19.9440 C   0  0  0  0  0  0  0  0  0  0  0  0
    5.0010    1.7780   19.0690 C   0  0  0  0  0  0  0  0  0  0  0  0
    4.9220    1.3860   17.7250 C   0  0  0  0  0  0  0  0  0  0  0  0
    5.5820    0.3090   17.2420 N   0  0  0  0  0  0  0  0  0  0  0  0
    6.3810   -0.3720   18.0870 C   0  0  0  0  0  0  0  0  0  0  0  0
    9.4910   -0.8700   21.4340 N   0  0  0  0  0  0  0  0  0  0  0  0
   10.5880   -0.3390   22.1420 C   0  0  0  0  0  0  0  0  0  0  0  0
   11.9120   -0.5820   21.7470 C   0  0  0  0  0  0  0  0  0  0  0  0
   12.9670    0.0810   22.4020 C   0  0  0  0  0  0  0  0  0  0  0  0
   12.6930    0.9720   23.4560 C   0  0  0  0  0  0  0  0  0  0  0  0
   11.3650    1.2070   23.8430 C   0  0  0  0  0  0  0  0  0  0  0  0
   10.9370    2.1880   25.2560 S   0  0  0  0  0  0  0  0  0  0  0  0
   10.8570    3.9740   24.8110 C   0  0  2  0  0  0  0  0  0  0  0  0
   10.0460    4.3400   23.5610 C   0  0  0  0  0  0  0  0  0  0  0  0
   10.4690    5.7970   23.2710 C   0  0  0  0  0  0  0  0  0  0  0  0
   11.7690    6.0570   24.0760 C   0  0  0  0  0  0  0  0  0  0  0  0
   12.1910    4.7120   24.6410 C   0  0  2  0  0  0  0  0  0  0  0  0
   13.0610    4.0710   23.7150 O   0  0  0  0  0  0  0  0  0  0  0  0
   10.3220    0.5520   23.1880 C   0  0  0  0  0  0  0  0  0  0  0  0
  1  2  2  0
  2  3  1  0
  2 10  1  0
  3  4  1  0
  4  5  2  0
  4  9  1  0
  5  6  1  0
  6  7  2  0
  7  8  1  0
  8  9  2  0
 10 11  1  0
 11 23  1  0
 11 12  2  0
 12 13  1  0
 13 14  2  0
 14 15  1  0
 15 16  1  0
 15 23  2  0
 17 16  1  6
 17 18  1  0
 17 21  1  0
 18 19  1  0
 19 20  1  0
 20 21  1  0
 21 22  1  6
M  END
>  <original SMILES>  (990) 
O=C(Nc1cccnc1)Nc1cccc(SC2CCCC2O)c1

>  <AutoDock Predicted Affinity>  (990) 
-6.253503

>  <ref_pdb>  (990) 
x0434_0

>  <ref_mols>  (990) 
x0434_0

>  <creator>  (990) 
Will Poole

>  <energy minimised>  (990) 
True

$$$$
WPC2520_minimised.pdb
     RDKit          3D

 23 25  0  0  0  0  0  0  0  0999 V2000
    9.0250    0.7570   20.5640 O   0  0  0  0  0  0  0  0  0  0  0  0
    8.6780   -0.3690   20.8580 C   0  0  0  0  0  0  0  0  0  0  0  0
    7.4450   -0.8520   20.5100 N   0  0  0  0  0  0  0  0  0  0  0  0
    6.5470   -0.1450   19.6700 C   0  0  0  0  0  0  0  0  0  0  0  0
    5.8170    0.9440   20.1710 C   0  0  0  0  0  0  0  0  0  0  0  0
    5.0380    1.6850   19.2690 C   0  0  0  0  0  0  0  0  0  0  0  0
    5.0350    1.3390   17.9080 C   0  0  0  0  0  0  0  0  0  0  0  0
    5.7210    0.2800   17.4240 N   0  0  0  0  0  0  0  0  0  0  0  0
    6.4700   -0.4300   18.2930 C   0  0  0  0  0  0  0  0  0  0  0  0
    9.4840   -1.2490   21.5340 N   0  0  0  0  0  0  0  0  0  0  0  0
   10.7780   -0.9000   21.9710 C   0  0  0  0  0  0  0  0  0  0  0  0
   11.9220   -1.4670   21.3970 C   0  0  0  0  0  0  0  0  0  0  0  0
   13.1990   -0.9640   21.6990 C   0  0  0  0  0  0  0  0  0  0  0  0
   13.3180    0.1520   22.5410 C   0  0  0  0  0  0  0  0  0  0  0  0
   12.1670    0.7210   23.1020 C   0  0  0  0  0  0  0  0  0  0  0  0
   12.2790    2.1890   24.0720 S   0  0  0  0  0  0  0  0  0  0  0  0
   11.4340    3.5170   23.1110 C   0  0  0  0  0  0  0  0  0  0  0  0
    9.8950    3.3460   23.2300 C   0  0  0  0  0  0  0  0  0  0  0  0
    9.0360    4.5820   22.8760 C   0  0  0  0  0  0  0  0  0  0  0  0
    9.7520    5.9320   23.0740 C   0  0  0  0  0  0  0  0  0  0  0  0
   10.8820    5.8380   24.1140 C   0  0  0  0  0  0  0  0  0  0  0  0
   11.9780    4.8880   23.5960 C   0  0  0  0  0  0  0  0  0  0  0  0
   10.9120    0.1580   22.8690 C   0  0  0  0  0  0  0  0  0  0  0  0
  1  2  2  0
  2  3  1  0
  2 10  1  0
  3  4  1  0
  4  5  2  0
  4  9  1  0
  5  6  1  0
  6  7  2  0
  7  8  1  0
  8  9  2  0
 10 11  1  0
 11 23  1  0
 11 12  2  0
 12 13  1  0
 13 14  2  0
 14 15  1  0
 15 16  1  0
 15 23  2  0
 16 17  1  0
 17 18  1  0
 17 22  1  0
 18 19  1  0
 19 20  1  0
 20 21  1  0
 21 22  1  0
M  END
>  <original SMILES>  (991) 
O=C(Nc1cccnc1)Nc1cccc(SC2CCCCC2)c1

>  <AutoDock Predicted Affinity>  (991) 
-6.290006

>  <ref_pdb>  (991) 
x0434_0

>  <ref_mols>  (991) 
x0434_0

>  <creator>  (991) 
Will Poole

>  <energy minimised>  (991) 
True

$$$$
WPC2295_minimised.pdb
     RDKit          3D

 23 25  0  0  1  0  0  0  0  0999 V2000
    8.5080    0.0200   19.6780 O   0  0  0  0  0  0  0  0  0  0  0  0
    7.7850   -0.0770   20.6490 C   0  0  0  0  0  0  0  0  0  0  0  0
    6.4280    0.0590   20.5790 N   0  0  0  0  0  0  0  0  0  0  0  0
    5.7360    0.6140   19.4780 C   0  0  0  0  0  0  0  0  0  0  0  0
    4.7910    1.6200   19.7150 C   0  0  0  0  0  0  0  0  0  0  0  0
    4.2310    2.2610   18.6040 C   0  0  0  0  0  0  0  0  0  0  0  0
    4.6460    1.9010   17.3140 C   0  0  0  0  0  0  0  0  0  0  0  0
    5.5200    0.8970   17.0750 N   0  0  0  0  0  0  0  0  0  0  0  0
    6.0560    0.2770   18.1450 C   0  0  0  0  0  0  0  0  0  0  0  0
    8.2410   -0.2650   21.9210 N   0  0  0  0  0  0  0  0  0  0  0  0
    9.5790   -0.0570   22.2990 C   0  0  0  0  0  0  0  0  0  0  0  0
   10.6110   -0.8730   21.8100 C   0  0  0  0  0  0  0  0  0  0  0  0
   11.9500   -0.5740   22.1160 C   0  0  0  0  0  0  0  0  0  0  0  0
   12.2500    0.5400   22.9190 C   0  0  0  0  0  0  0  0  0  0  0  0
   11.2100    1.3420   23.4150 C   0  0  0  0  0  0  0  0  0  0  0  0
   11.5480    2.7630   24.4120 S   0  0  0  0  0  0  0  0  0  0  0  0
   11.4240    4.1360   23.2000 C   0  0  2  0  0  0  0  0  0  0  0  0
   12.7160    4.9600   23.1710 C   0  0  0  0  0  0  0  0  0  0  0  0
   12.4370    6.0720   24.1920 C   0  0  0  0  0  0  0  0  0  0  0  0
   11.0100    6.2470   24.1200 O   0  0  0  0  0  0  0  0  0  0  0  0
   10.3660    5.1400   23.6430 C   0  0  0  0  0  0  0  0  0  0  0  0
    9.1720    4.9350   23.7550 O   0  0  0  0  0  0  0  0  0  0  0  0
    9.8790    1.0480   23.1030 C   0  0  0  0  0  0  0  0  0  0  0  0
  1  2  2  0
  2  3  1  0
  2 10  1  0
  3  4  1  0
  4  5  2  0
  4  9  1  0
  5  6  1  0
  6  7  2  0
  7  8  1  0
  8  9  2  0
 10 11  1  0
 11 23  1  0
 11 12  2  0
 12 13  1  0
 13 14  2  0
 14 15  1  0
 15 16  1  0
 15 23  2  0
 17 16  1  1
 17 18  1  0
 17 21  1  0
 18 19  1  0
 19 20  1  0
 20 21  1  0
 21 22  2  0
M  END
>  <original SMILES>  (992) 
O=C(Nc1cccnc1)Nc1cccc(SC2CCOC2=O)c1

>  <AutoDock Predicted Affinity>  (992) 
-5.611673

>  <ref_pdb>  (992) 
x0434_0

>  <ref_mols>  (992) 
x0434_0

>  <creator>  (992) 
Will Poole

>  <energy minimised>  (992) 
True

$$$$
WPC1489_minimised.pdb
     RDKit          3D

 24 26  0  0  1  0  0  0  0  0999 V2000
    8.5320    0.1160   19.6700 O   0  0  0  0  0  0  0  0  0  0  0  0
    7.8690   -0.0110   20.6770 C   0  0  0  0  0  0  0  0  0  0  0  0
    6.5120    0.1620   20.6800 N   0  0  0  0  0  0  0  0  0  0  0  0
    5.7710    0.6780   19.5890 C   0  0  0  0  0  0  0  0  0  0  0  0
    4.8220    1.6810   19.8240 C   0  0  0  0  0  0  0  0  0  0  0  0
    4.2230    2.2830   18.7100 C   0  0  0  0  0  0  0  0  0  0  0  0
    4.6070    1.8950   17.4190 C   0  0  0  0  0  0  0  0  0  0  0  0
    5.4750    0.8870   17.1830 N   0  0  0  0  0  0  0  0  0  0  0  0
    6.0460    0.3010   18.2540 C   0  0  0  0  0  0  0  0  0  0  0  0
    8.4130   -0.3000   21.8950 N   0  0  0  0  0  0  0  0  0  0  0  0
    9.8030   -0.4020   22.0980 C   0  0  0  0  0  0  0  0  0  0  0  0
   10.4950   -1.5230   21.6210 C   0  0  0  0  0  0  0  0  0  0  0  0
   11.8950   -1.5600   21.6840 C   0  0  0  0  0  0  0  0  0  0  0  0
   12.6020   -0.4780   22.2160 C   0  0  0  0  0  0  0  0  0  0  0  0
   11.9100    0.6280   22.7210 C   0  0  0  0  0  0  0  0  0  0  0  0
   12.8790    1.9210   23.4460 S   0  0  0  0  0  0  0  0  0  0  0  0
   12.0770    3.5260   23.0340 C   0  0  1  0  0  0  0  0  0  0  0  0
   10.8580    3.6230   23.8180 O   0  0  0  0  0  0  0  0  0  0  0  0
   10.2040    4.8950   23.6990 C   0  0  0  0  0  0  0  0  0  0  0  0
   11.1360    5.9700   24.2990 C   0  0  0  0  0  0  0  0  0  0  0  0
   12.5500    5.8130   23.9150 N   0  0  0  0  0  0  0  0  0  0  0  0
   13.0660    4.6770   23.3390 C   0  0  0  0  0  0  0  0  0  0  0  0
   14.2670    4.6370   23.1510 O   0  0  0  0  0  0  0  0  0  0  0  0
   10.5070    0.6700   22.6640 C   0  0  0  0  0  0  0  0  0  0  0  0
  1  2  2  0
  2  3  1  0
  2 10  1  0
  3  4  1  0
  4  5  2  0
  4  9  1  0
  5  6  1  0
  6  7  2  0
  7  8  1  0
  8  9  2  0
 10 11  1  0
 11 24  1  0
 11 12  2  0
 12 13  1  0
 13 14  2  0
 14 15  1  0
 15 16  1  0
 15 24  2  0
 17 16  1  1
 17 18  1  0
 17 22  1  0
 18 19  1  0
 19 20  1  0
 20 21  1  0
 21 22  1  0
 22 23  2  0
M  END
>  <original SMILES>  (993) 
O=C(Nc1cccnc1)Nc1cccc(SC2OCCNC2=O)c1

>  <AutoDock Predicted Affinity>  (993) 
-5.903142

>  <ref_pdb>  (993) 
x0434_0

>  <ref_mols>  (993) 
x0434_0

>  <creator>  (993) 
Will Poole

>  <energy minimised>  (993) 
True

$$$$
WPC1762_minimised.pdb
     RDKit          3D

 24 26  0  0  1  0  0  0  0  0999 V2000
    8.5400    0.0560   19.7220 O   0  0  0  0  0  0  0  0  0  0  0  0
    7.8560   -0.1300   20.7080 C   0  0  0  0  0  0  0  0  0  0  0  0
    6.4970    0.0230   20.6920 N   0  0  0  0  0  0  0  0  0  0  0  0
    5.7750    0.5760   19.6060 C   0  0  0  0  0  0  0  0  0  0  0  0
    4.8360    1.5850   19.8520 C   0  0  0  0  0  0  0  0  0  0  0  0
    4.2650    2.2250   18.7440 C   0  0  0  0  0  0  0  0  0  0  0  0
    4.6630    1.8630   17.4490 C   0  0  0  0  0  0  0  0  0  0  0  0
    5.5220    0.8490   17.2020 N   0  0  0  0  0  0  0  0  0  0  0  0
    6.0680    0.2310   18.2670 C   0  0  0  0  0  0  0  0  0  0  0  0
    8.3800   -0.4710   21.9230 N   0  0  0  0  0  0  0  0  0  0  0  0
    9.7690   -0.5370   22.1500 C   0  0  0  0  0  0  0  0  0  0  0  0
   10.5260   -1.5480   21.5430 C   0  0  0  0  0  0  0  0  0  0  0  0
   11.9280   -1.5010   21.5860 C   0  0  0  0  0  0  0  0  0  0  0  0
   12.5710   -0.4470   22.2450 C   0  0  0  0  0  0  0  0  0  0  0  0
   11.8120    0.5410   22.8810 C   0  0  0  0  0  0  0  0  0  0  0  0
   12.6650    1.8340   23.7280 S   0  0  0  0  0  0  0  0  0  0  0  0
   12.1650    3.3950   22.8920 C   0  0  1  0  0  0  0  0  0  0  0  0
   10.4890    3.9780   23.3900 S   0  0  0  0  0  0  0  0  0  0  0  0
   11.0740    5.6360   23.7200 C   0  0  0  0  0  0  0  0  0  0  0  0
   10.4150    6.5960   24.0440 O   0  0  0  0  0  0  0  0  0  0  0  0
   12.4280    5.6330   23.6610 N   0  0  0  0  0  0  0  0  0  0  0  0
   13.1040    4.5360   23.2600 C   0  0  0  0  0  0  0  0  0  0  0  0
   14.3170    4.5170   23.2440 O   0  0  0  0  0  0  0  0  0  0  0  0
   10.4100    0.4970   22.8430 C   0  0  0  0  0  0  0  0  0  0  0  0
  1  2  2  0
  2  3  1  0
  2 10  1  0
  3  4  1  0
  4  5  2  0
  4  9  1  0
  5  6  1  0
  6  7  2  0
  7  8  1  0
  8  9  2  0
 10 11  1  0
 11 24  1  0
 11 12  2  0
 12 13  1  0
 13 14  2  0
 14 15  1  0
 15 16  1  0
 15 24  2  0
 17 16  1  1
 17 18  1  0
 17 22  1  0
 18 19  1  0
 19 20  2  0
 19 21  1  0
 21 22  1  0
 22 23  2  0
M  END
>  <original SMILES>  (994) 
O=C(Nc1cccnc1)Nc1cccc(SC2SC(=O)NC2=O)c1

>  <AutoDock Predicted Affinity>  (994) 
-6.293135

>  <ref_pdb>  (994) 
x0434_0

>  <ref_mols>  (994) 
x0434_0

>  <creator>  (994) 
Will Poole

>  <energy minimised>  (994) 
True

$$$$
WPC2239_minimised.pdb
     RDKit          3D

 23 24  0  0  1  0  0  0  0  0999 V2000
    8.6470    0.2310   20.0180 O   0  0  0  0  0  0  0  0  0  0  0  0
    7.8900   -0.1400   20.8930 C   0  0  0  0  0  0  0  0  0  0  0  0
    6.5320   -0.0730   20.7670 N   0  0  0  0  0  0  0  0  0  0  0  0
    5.8590    0.5070   19.6660 C   0  0  0  0  0  0  0  0  0  0  0  0
    4.8860    1.4860   19.8940 C   0  0  0  0  0  0  0  0  0  0  0  0
    4.3380    2.1290   18.7760 C   0  0  0  0  0  0  0  0  0  0  0  0
    4.7830    1.7860   17.4910 C   0  0  0  0  0  0  0  0  0  0  0  0
    5.6870    0.8070   17.2600 N   0  0  0  0  0  0  0  0  0  0  0  0
    6.2230    0.1980   18.3370 C   0  0  0  0  0  0  0  0  0  0  0  0
    8.3060   -0.6440   22.0940 N   0  0  0  0  0  0  0  0  0  0  0  0
    9.6590   -0.7020   22.4820 C   0  0  0  0  0  0  0  0  0  0  0  0
   10.2960   -1.9360   22.6840 C   0  0  0  0  0  0  0  0  0  0  0  0
   11.6770   -1.9700   22.9310 C   0  0  0  0  0  0  0  0  0  0  0  0
   12.4090   -0.7730   22.9710 C   0  0  0  0  0  0  0  0  0  0  0  0
   11.7610    0.4620   22.8550 C   0  0  0  0  0  0  0  0  0  0  0  0
   12.7460    1.9390   22.9990 S   0  0  0  0  0  0  0  0  0  0  0  0
   11.6130    3.3360   23.4320 C   0  0  0  0  0  0  0  0  0  0  0  0
   12.2600    4.7200   23.1830 C   0  0  2  0  0  0  0  0  0  0  0  0
   13.6850    4.6860   23.4260 O   0  0  0  0  0  0  0  0  0  0  0  0
   11.5750    5.8220   24.0160 C   0  0  0  0  0  0  0  0  0  0  0  0
   10.3840    5.8830   24.2520 O   0  0  0  0  0  0  0  0  0  0  0  0
   12.4400    6.7000   24.5500 O   0  0  0  0  0  0  0  0  0  0  0  0
   10.3850    0.4940   22.5850 C   0  0  0  0  0  0  0  0  0  0  0  0
  1  2  2  0
  2 10  1  0
  2  3  1  0
  3  4  1  0
  4  5  2  0
  4  9  1  0
  5  6  1  0
  6  7  2  0
  7  8  1  0
  8  9  2  0
 10 11  1  0
 11 12  2  0
 11 23  1  0
 12 13  1  0
 13 14  2  0
 14 15  1  0
 15 16  1  0
 15 23  2  0
 16 17  1  0
 17 18  1  0
 18 20  1  0
 18 19  1  1
 20 21  2  0
 20 22  1  0
M  END
>  <original SMILES>  (995) 
O=C(Nc1cccnc1)Nc1cccc(SCC(O)C(=O)O)c1

>  <AutoDock Predicted Affinity>  (995) 
-5.250892

>  <ref_pdb>  (995) 
x0434_0

>  <ref_mols>  (995) 
x0434_0

>  <creator>  (995) 
Will Poole

>  <energy minimised>  (995) 
True

$$$$
WPC1836_minimised.pdb
     RDKit          3D

 22 23  0  0  1  0  0  0  0  0999 V2000
    8.4240   -0.2780   19.5760 O   0  0  0  0  0  0  0  0  0  0  0  0
    7.7330   -0.6190   20.5150 C   0  0  0  0  0  0  0  0  0  0  0  0
    6.3670   -0.5490   20.4840 N   0  0  0  0  0  0  0  0  0  0  0  0
    5.6640    0.1610   19.4830 C   0  0  0  0  0  0  0  0  0  0  0  0
    4.7870    1.1910   19.8500 C   0  0  0  0  0  0  0  0  0  0  0  0
    4.2450    1.9810   18.8270 C   0  0  0  0  0  0  0  0  0  0  0  0
    4.6050    1.7320   17.4930 C   0  0  0  0  0  0  0  0  0  0  0  0
    5.4260    0.7210   17.1330 N   0  0  0  0  0  0  0  0  0  0  0  0
    5.9500   -0.0350   18.1160 C   0  0  0  0  0  0  0  0  0  0  0  0
    8.2380   -0.9940   21.7270 N   0  0  0  0  0  0  0  0  0  0  0  0
    9.4890   -0.5200   22.1520 C   0  0  0  0  0  0  0  0  0  0  0  0
   10.6170   -1.3450   22.2340 C   0  0  0  0  0  0  0  0  0  0  0  0
   11.8710   -0.7780   22.5250 C   0  0  0  0  0  0  0  0  0  0  0  0
   11.9870    0.6080   22.7500 C   0  0  0  0  0  0  0  0  0  0  0  0
   10.8420    1.4200   22.6800 C   0  0  0  0  0  0  0  0  0  0  0  0
   10.8640    3.1860   22.8420 S   0  0  0  0  0  0  0  0  0  0  0  0
   12.0620    3.5890   24.1620 C   0  0  0  0  0  0  0  0  0  0  0  0
   13.2910    4.3770   23.6490 C   0  0  1  0  0  0  0  0  0  0  0  0
   14.3270    3.4840   23.2710 O   0  0  0  0  0  0  0  0  0  0  0  0
   12.9730    5.3340   22.4920 C   0  0  0  0  0  0  0  0  0  0  0  0
   14.0400    6.2680   22.2780 O   0  0  0  0  0  0  0  0  0  0  0  0
    9.6050    0.8540   22.3780 C   0  0  0  0  0  0  0  0  0  0  0  0
  1  2  2  0
  2 10  1  0
  2  3  1  0
  3  4  1  0
  4  5  2  0
  4  9  1  0
  5  6  1  0
  6  7  2  0
  7  8  1  0
  8  9  2  0
 10 11  1  0
 11 12  2  0
 11 22  1  0
 12 13  1  0
 13 14  2  0
 14 15  1  0
 15 16  1  0
 15 22  2  0
 16 17  1  0
 17 18  1  0
 18 20  1  0
 18 19  1  6
 20 21  1  0
M  END
>  <original SMILES>  (996) 
O=C(Nc1cccnc1)Nc1cccc(SCC(O)CO)c1

>  <AutoDock Predicted Affinity>  (996) 
-5.295241

>  <ref_pdb>  (996) 
x0434_0

>  <ref_mols>  (996) 
x0434_0

>  <creator>  (996) 
Will Poole

>  <energy minimised>  (996) 
True

$$$$
WPC2425_minimised.pdb
     RDKit          3D

 24 26  0  0  0  0  0  0  0  0999 V2000
    8.6540    0.3340   19.8950 O   0  0  0  0  0  0  0  0  0  0  0  0
    7.9840   -0.1950   20.7590 C   0  0  0  0  0  0  0  0  0  0  0  0
    6.6360   -0.3800   20.6280 N   0  0  0  0  0  0  0  0  0  0  0  0
    5.8820    0.2190   19.5920 C   0  0  0  0  0  0  0  0  0  0  0  0
    4.9240    1.1890   19.9110 C   0  0  0  0  0  0  0  0  0  0  0  0
    4.3340    1.8940   18.8540 C   0  0  0  0  0  0  0  0  0  0  0  0
    4.7210    1.6140   17.5340 C   0  0  0  0  0  0  0  0  0  0  0  0
    5.6160    0.6520   17.2180 N   0  0  0  0  0  0  0  0  0  0  0  0
    6.1970   -0.0120   18.2370 C   0  0  0  0  0  0  0  0  0  0  0  0
    8.4790   -0.5760   21.9710 N   0  0  0  0  0  0  0  0  0  0  0  0
    9.6710   -0.0530   22.5010 C   0  0  0  0  0  0  0  0  0  0  0  0
   10.9320   -0.4800   22.0560 C   0  0  0  0  0  0  0  0  0  0  0  0
   12.0940    0.1390   22.5530 C   0  0  0  0  0  0  0  0  0  0  0  0
   11.9880    1.1910   23.4810 C   0  0  0  0  0  0  0  0  0  0  0  0
   10.7190    1.6180   23.9070 C   0  0  0  0  0  0  0  0  0  0  0  0
   10.5110    2.9480   25.0590 S   0  0  0  0  0  0  0  0  0  0  0  0
   10.4080    4.4500   24.0030 C   0  0  0  0  0  0  0  0  0  0  0  0
   11.8230    4.7130   23.5610 C   0  0  0  0  0  0  0  0  0  0  0  0
   12.1420    4.6530   22.1230 C   0  0  0  0  0  0  0  0  0  0  0  0
   13.6250    4.8740   22.1530 C   0  0  0  0  0  0  0  0  0  0  0  0
   14.2420    5.4020   21.2460 O   0  0  0  0  0  0  0  0  0  0  0  0
   13.9550    4.9940   23.4740 O   0  0  0  0  0  0  0  0  0  0  0  0
   12.8230    4.9290   24.3200 N   0  0  0  0  0  0  0  0  0  0  0  0
    9.5690    0.9900   23.4250 C   0  0  0  0  0  0  0  0  0  0  0  0
  1  2  2  0
  2  3  1  0
  2 10  1  0
  3  4  1  0
  4  5  2  0
  4  9  1  0
  5  6  1  0
  6  7  2  0
  7  8  1  0
  8  9  2  0
 10 11  1  0
 11 24  1  0
 11 12  2  0
 12 13  1  0
 13 14  2  0
 14 15  1  0
 15 16  1  0
 15 24  2  0
 16 17  1  0
 17 18  1  0
 18 19  1  0
 18 23  2  0
 19 20  1  0
 20 21  2  0
 20 22  1  0
 22 23  1  0
M  END
>  <original SMILES>  (997) 
O=C(Nc1cccnc1)Nc1cccc(SCC2=NOC(=O)C2)c1

>  <AutoDock Predicted Affinity>  (997) 
-5.812022

>  <ref_pdb>  (997) 
x0434_0

>  <ref_mols>  (997) 
x0434_0

>  <creator>  (997) 
Will Poole

>  <energy minimised>  (997) 
True

$$$$
WPC2424_minimised.pdb
     RDKit          3D

 24 26  0  0  1  0  0  0  0  0999 V2000
    8.7890   -1.0810   19.7680 O   0  0  0  0  0  0  0  0  0  0  0  0
    8.0620   -1.0080   20.7410 C   0  0  0  0  0  0  0  0  0  0  0  0
    6.7370   -0.6700   20.6480 N   0  0  0  0  0  0  0  0  0  0  0  0
    6.1220    0.0450   19.5840 C   0  0  0  0  0  0  0  0  0  0  0  0
    5.2300    1.0810   19.8990 C   0  0  0  0  0  0  0  0  0  0  0  0
    4.7180    1.8680   18.8590 C   0  0  0  0  0  0  0  0  0  0  0  0
    5.1030    1.5980   17.5420 C   0  0  0  0  0  0  0  0  0  0  0  0
    5.9290    0.5790   17.2230 N   0  0  0  0  0  0  0  0  0  0  0  0
    6.4390   -0.1680   18.2260 C   0  0  0  0  0  0  0  0  0  0  0  0
    8.4670   -1.1880   22.0400 N   0  0  0  0  0  0  0  0  0  0  0  0
    9.7460   -0.8030   22.4990 C   0  0  0  0  0  0  0  0  0  0  0  0
   10.9190   -1.3200   21.9310 C   0  0  0  0  0  0  0  0  0  0  0  0
   12.1560   -0.6940   22.1650 C   0  0  0  0  0  0  0  0  0  0  0  0
   12.2100    0.4720   22.9490 C   0  0  0  0  0  0  0  0  0  0  0  0
   11.0370    0.9680   23.5390 C   0  0  0  0  0  0  0  0  0  0  0  0
   11.0050    2.5920   24.2650 S   0  0  0  0  0  0  0  0  0  0  0  0
   10.6820    3.6600   22.7900 C   0  0  0  0  0  0  0  0  0  0  0  0
    9.3480    3.2460   22.1990 C   0  0  0  0  0  0  0  0  0  0  0  0
    8.1240    3.9800   22.6070 C   0  0  0  0  0  0  0  0  0  0  0  0
    7.0740    3.0310   22.0940 C   0  0  0  0  0  0  0  0  0  0  0  0
    6.0470    2.7690   22.7030 O   0  0  0  0  0  0  0  0  0  0  0  0
    7.7400    2.1160   21.3210 O   0  0  0  0  0  0  0  0  0  0  0  0
    9.1410    2.3010   21.3610 N   0  0  0  0  0  0  0  0  0  0  0  0
    9.8230    0.2880   23.3720 C   0  0  0  0  0  0  0  0  0  0  0  0
  1  2  2  0
  2  3  1  0
  2 10  1  0
  3  4  1  0
  4  5  2  0
  4  9  1  0
  5  6  1  0
  6  7  2  0
  7  8  1  0
  8  9  2  0
 10 11  1  0
 11 24  1  0
 11 12  2  0
 12 13  1  0
 13 14  2  0
 14 15  1  0
 15 16  1  0
 15 24  2  0
 16 17  1  0
 18 17  1  0
 18 19  1  0
 18 23  1  0
 19 20  1  0
 20 21  2  0
 20 22  1  0
 22 23  1  0
M  END
>  <original SMILES>  (998) 
O=C(Nc1cccnc1)Nc1cccc(SCC2CC(=O)ON2)c1

>  <AutoDock Predicted Affinity>  (998) 
-5.25618

>  <ref_pdb>  (998) 
x0434_0

>  <ref_mols>  (998) 
x0434_0

>  <creator>  (998) 
Will Poole

>  <energy minimised>  (998) 
True

$$$$
WPC1841_minimised.pdb
     RDKit          3D

 21 23  0  0  0  0  0  0  0  0999 V2000
    8.6730    0.3950   20.0360 O   0  0  0  0  0  0  0  0  0  0  0  0
    7.9640    0.0330   20.9520 C   0  0  0  0  0  0  0  0  0  0  0  0
    6.6110   -0.1090   20.8170 N   0  0  0  0  0  0  0  0  0  0  0  0
    5.8880    0.4000   19.7120 C   0  0  0  0  0  0  0  0  0  0  0  0
    4.9070    1.3730   19.9360 C   0  0  0  0  0  0  0  0  0  0  0  0
    4.3430    1.9980   18.8170 C   0  0  0  0  0  0  0  0  0  0  0  0
    4.7760    1.6380   17.5320 C   0  0  0  0  0  0  0  0  0  0  0  0
    5.6870    0.6650   17.3040 N   0  0  0  0  0  0  0  0  0  0  0  0
    6.2430    0.0780   18.3840 C   0  0  0  0  0  0  0  0  0  0  0  0
    8.4250   -0.2060   22.2150 N   0  0  0  0  0  0  0  0  0  0  0  0
    9.7020    0.1910   22.6540 C   0  0  0  0  0  0  0  0  0  0  0  0
   10.8430   -0.5470   22.3070 C   0  0  0  0  0  0  0  0  0  0  0  0
   12.1170   -0.0700   22.6580 C   0  0  0  0  0  0  0  0  0  0  0  0
   12.2430    1.1390   23.3640 C   0  0  0  0  0  0  0  0  0  0  0  0
   11.0980    1.8830   23.6930 C   0  0  0  0  0  0  0  0  0  0  0  0
   11.2280    3.4920   24.4370 S   0  0  0  0  0  0  0  0  0  0  0  0
   11.4760    4.5360   22.9490 C   0  0  0  0  0  0  0  0  0  0  0  0
   12.8120    5.2500   23.1150 C   0  0  0  0  0  0  0  0  0  0  0  0
   14.1030    4.4950   22.9310 C   0  0  0  0  0  0  0  0  0  0  0  0
   13.6580    5.4830   21.8870 C   0  0  0  0  0  0  0  0  0  0  0  0
    9.8310    1.4040   23.3420 C   0  0  0  0  0  0  0  0  0  0  0  0
  1  2  2  0
  2  3  1  0
  2 10  1  0
  3  4  1  0
  4  5  2  0
  4  9  1  0
  5  6  1  0
  6  7  2  0
  7  8  1  0
  8  9  2  0
 10 11  1  0
 11 21  1  0
 11 12  2  0
 12 13  1  0
 13 14  2  0
 14 15  1  0
 15 16  1  0
 15 21  2  0
 16 17  1  0
 17 18  1  0
 18 19  1  0
 18 20  1  0
 19 20  1  0
M  END
>  <original SMILES>  (999) 
O=C(Nc1cccnc1)Nc1cccc(SCC2CC2)c1

>  <AutoDock Predicted Affinity>  (999) 
-5.414731

>  <ref_pdb>  (999) 
x0434_0

>  <ref_mols>  (999) 
x0434_0

>  <creator>  (999) 
Will Poole

>  <energy minimised>  (999) 
True

$$$$
WPC1876_minimised.pdb
     RDKit          3D

 23 24  0  0  0  0  0  0  0  0999 V2000
    8.8520    0.7800   20.4140 O   0  0  0  0  0  0  0  0  0  0  0  0
    8.2850   -0.1440   20.9620 C   0  0  0  0  0  0  0  0  0  0  0  0
    6.9840   -0.4650   20.6980 N   0  0  0  0  0  0  0  0  0  0  0  0
    6.2000    0.1810   19.7120 C   0  0  0  0  0  0  0  0  0  0  0  0
    5.3150    1.2060   20.0720 C   0  0  0  0  0  0  0  0  0  0  0  0
    4.6340    1.8710   19.0420 C   0  0  0  0  0  0  0  0  0  0  0  0
    4.8680    1.5070   17.7060 C   0  0  0  0  0  0  0  0  0  0  0  0
    5.7060    0.5060   17.3550 N   0  0  0  0  0  0  0  0  0  0  0  0
    6.3740   -0.1180   18.3460 C   0  0  0  0  0  0  0  0  0  0  0  0
    8.8850   -0.9770   21.8640 N   0  0  0  0  0  0  0  0  0  0  0  0
   10.2420   -0.8830   22.2300 C   0  0  0  0  0  0  0  0  0  0  0  0
   11.1190   -1.9430   21.9640 C   0  0  0  0  0  0  0  0  0  0  0  0
   12.4950   -1.7990   22.2090 C   0  0  0  0  0  0  0  0  0  0  0  0
   12.9850   -0.6000   22.7390 C   0  0  0  0  0  0  0  0  0  0  0  0
   12.0930    0.4210   23.0800 C   0  0  0  0  0  0  0  0  0  0  0  0
   12.6850    1.8430   23.9320 S   0  0  0  0  0  0  0  0  0  0  0  0
   13.7000    2.7170   22.6820 C   0  0  0  0  0  0  0  0  0  0  0  0
   12.8020    3.6010   21.8000 C   0  0  0  0  0  0  0  0  0  0  0  0
   12.6190    5.0250   22.3690 C   0  0  0  0  0  0  0  0  0  0  0  0
   11.8750    5.1510   23.7210 C   0  0  0  0  0  0  0  0  0  0  0  0
   10.3900    4.7340   23.6630 C   0  0  0  0  0  0  0  0  0  0  0  0
    9.6540    5.6610   22.8700 O   0  0  0  0  0  0  0  0  0  0  0  0
   10.7270    0.2950   22.8110 C   0  0  0  0  0  0  0  0  0  0  0  0
  1  2  2  0
  2 10  1  0
  2  3  1  0
  3  4  1  0
  4  5  2  0
  4  9  1  0
  5  6  1  0
  6  7  2  0
  7  8  1  0
  8  9  2  0
 10 11  1  0
 11 12  2  0
 11 23  1  0
 12 13  1  0
 13 14  2  0
 14 15  1  0
 15 16  1  0
 15 23  2  0
 16 17  1  0
 17 18  1  0
 18 19  1  0
 19 20  1  0
 20 21  1  0
 21 22  1  0
M  END
>  <original SMILES>  (1000) 
O=C(Nc1cccnc1)Nc1cccc(SCCCCCO)c1

>  <AutoDock Predicted Affinity>  (1000) 
-3.0683

>  <ref_pdb>  (1000) 
x0434_0

>  <ref_mols>  (1000) 
x0434_0

>  <creator>  (1000) 
Will Poole

>  <energy minimised>  (1000) 
True

$$$$
WPC1996_minimised.pdb
     RDKit          3D

 22 23  0  0  0  0  0  0  0  0999 V2000
    8.5060   -0.0440   19.8070 O   0  0  0  0  0  0  0  0  0  0  0  0
    7.6970   -0.3900   20.6460 C   0  0  0  0  0  0  0  0  0  0  0  0
    6.3730   -0.0670   20.5620 N   0  0  0  0  0  0  0  0  0  0  0  0
    5.7530    0.6200   19.4930 C   0  0  0  0  0  0  0  0  0  0  0  0
    4.7930    1.6030   19.7580 C   0  0  0  0  0  0  0  0  0  0  0  0
    4.2550    2.2950   18.6650 C   0  0  0  0  0  0  0  0  0  0  0  0
    4.6980    1.9980   17.3670 C   0  0  0  0  0  0  0  0  0  0  0  0
    5.5960    1.0220   17.1020 N   0  0  0  0  0  0  0  0  0  0  0  0
    6.1180    0.3630   18.1540 C   0  0  0  0  0  0  0  0  0  0  0  0
    7.9660   -1.1430   21.7560 N   0  0  0  0  0  0  0  0  0  0  0  0
    9.2050   -1.6680   22.1860 C   0  0  0  0  0  0  0  0  0  0  0  0
    9.2050   -2.7750   23.0500 C   0  0  0  0  0  0  0  0  0  0  0  0
   10.4180   -3.2750   23.5500 C   0  0  0  0  0  0  0  0  0  0  0  0
   11.6230   -2.6380   23.2140 C   0  0  0  0  0  0  0  0  0  0  0  0
   11.6290   -1.5200   22.3720 C   0  0  0  0  0  0  0  0  0  0  0  0
   13.1410   -0.6410   22.0220 S   0  0  0  0  0  0  0  0  0  0  0  0
   13.1160    0.8520   23.1290 C   0  0  0  0  0  0  0  0  0  0  0  0
   11.7910    1.6530   23.0850 C   0  0  0  0  0  0  0  0  0  0  0  0
   10.7790    1.1920   24.1630 C   0  0  0  0  0  0  0  0  0  0  0  0
    9.3630    1.7550   23.9620 C   0  0  0  0  0  0  0  0  0  0  0  0
    8.5310    1.2970   25.0280 O   0  0  0  0  0  0  0  0  0  0  0  0
   10.4230   -1.0650   21.8300 C   0  0  0  0  0  0  0  0  0  0  0  0
  1  2  2  0
  2 10  1  0
  2  3  1  0
  3  4  1  0
  4  5  2  0
  4  9  1  0
  5  6  1  0
  6  7  2  0
  7  8  1  0
  8  9  2  0
 10 11  1  0
 11 12  2  0
 11 22  1  0
 12 13  1  0
 13 14  2  0
 14 15  1  0
 15 16  1  0
 15 22  2  0
 16 17  1  0
 17 18  1  0
 18 19  1  0
 19 20  1  0
 20 21  1  0
M  END
>  <original SMILES>  (1001) 
O=C(Nc1cccnc1)Nc1cccc(SCCCCO)c1

>  <AutoDock Predicted Affinity>  (1001) 
-4.591682

>  <ref_pdb>  (1001) 
x0434_0

>  <ref_mols>  (1001) 
x0434_0

>  <creator>  (1001) 
Will Poole

>  <energy minimised>  (1001) 
True

$$$$
WPC1174_minimised.pdb
     RDKit          3D

 21 22  0  0  0  0  0  0  0  0999 V2000
    8.6680    0.1180   19.8070 O   0  0  0  0  0  0  0  0  0  0  0  0
    7.9550   -0.2180   20.7310 C   0  0  0  0  0  0  0  0  0  0  0  0
    6.5920   -0.2570   20.6310 N   0  0  0  0  0  0  0  0  0  0  0  0
    5.8770    0.3420   19.5680 C   0  0  0  0  0  0  0  0  0  0  0  0
    4.9260    1.3290   19.8570 C   0  0  0  0  0  0  0  0  0  0  0  0
    4.3620    2.0250   18.7800 C   0  0  0  0  0  0  0  0  0  0  0  0
    4.7750    1.7300   17.4720 C   0  0  0  0  0  0  0  0  0  0  0  0
    5.6600    0.7490   17.1840 N   0  0  0  0  0  0  0  0  0  0  0  0
    6.2060    0.0840   18.2210 C   0  0  0  0  0  0  0  0  0  0  0  0
    8.4170   -0.5060   21.9820 N   0  0  0  0  0  0  0  0  0  0  0  0
    9.6850   -0.1060   22.4400 C   0  0  0  0  0  0  0  0  0  0  0  0
   10.8600   -0.7170   21.9770 C   0  0  0  0  0  0  0  0  0  0  0  0
   12.1120   -0.2270   22.3860 C   0  0  0  0  0  0  0  0  0  0  0  0
   12.1830    0.8750   23.2560 C   0  0  0  0  0  0  0  0  0  0  0  0
   11.0010    1.4930   23.7000 C   0  0  0  0  0  0  0  0  0  0  0  0
   11.0310    2.9160   24.7610 S   0  0  0  0  0  0  0  0  0  0  0  0
   11.4130    4.3220   23.6430 C   0  0  0  0  0  0  0  0  0  0  0  0
   12.8110    4.1730   23.0080 C   0  0  0  0  0  0  0  0  0  0  0  0
   13.3250    5.5010   22.4500 C   0  0  0  0  0  0  0  0  0  0  0  0
   14.7400    5.5210   22.3800 O   0  0  0  0  0  0  0  0  0  0  0  0
    9.7580    0.9950   23.3000 C   0  0  0  0  0  0  0  0  0  0  0  0
  1  2  2  0
  2 10  1  0
  2  3  1  0
  3  4  1  0
  4  5  2  0
  4  9  1  0
  5  6  1  0
  6  7  2  0
  7  8  1  0
  8  9  2  0
 10 11  1  0
 11 12  2  0
 11 21  1  0
 12 13  1  0
 13 14  2  0
 14 15  1  0
 15 16  1  0
 15 21  2  0
 16 17  1  0
 17 18  1  0
 18 19  1  0
 19 20  1  0
M  END
>  <original SMILES>  (1002) 
O=C(Nc1cccnc1)Nc1cccc(SCCCO)c1

>  <AutoDock Predicted Affinity>  (1002) 
-5.132874

>  <ref_pdb>  (1002) 
x0434_0

>  <ref_mols>  (1002) 
x0434_0

>  <creator>  (1002) 
Will Poole

>  <energy minimised>  (1002) 
True

$$$$
WPC1815_minimised.pdb
     RDKit          3D

 24 25  0  0  0  0  0  0  0  0999 V2000
    8.5510    0.1850   19.7910 O   0  0  0  0  0  0  0  0  0  0  0  0
    7.8760   -0.2740   20.6910 C   0  0  0  0  0  0  0  0  0  0  0  0
    6.5100   -0.3000   20.6300 N   0  0  0  0  0  0  0  0  0  0  0  0
    5.7780    0.3250   19.5930 C   0  0  0  0  0  0  0  0  0  0  0  0
    4.8500    1.3270   19.9030 C   0  0  0  0  0  0  0  0  0  0  0  0
    4.2850    2.0410   18.8370 C   0  0  0  0  0  0  0  0  0  0  0  0
    4.6700    1.7450   17.5200 C   0  0  0  0  0  0  0  0  0  0  0  0
    5.5350    0.7520   17.2130 N   0  0  0  0  0  0  0  0  0  0  0  0
    6.0830    0.0720   18.2380 C   0  0  0  0  0  0  0  0  0  0  0  0
    8.4020   -0.7510   21.8560 N   0  0  0  0  0  0  0  0  0  0  0  0
    9.7440   -0.5390   22.2190 C   0  0  0  0  0  0  0  0  0  0  0  0
   10.7030   -1.5520   22.0850 C   0  0  0  0  0  0  0  0  0  0  0  0
   12.0560   -1.2670   22.3330 C   0  0  0  0  0  0  0  0  0  0  0  0
   12.4380    0.0250   22.7350 C   0  0  0  0  0  0  0  0  0  0  0  0
   11.4690    1.0240   22.9130 C   0  0  0  0  0  0  0  0  0  0  0  0
   11.9770    2.6380   23.4660 S   0  0  0  0  0  0  0  0  0  0  0  0
   10.5240    3.3590   24.3480 C   0  0  0  0  0  0  0  0  0  0  0  0
    9.7080    4.3020   23.4360 C   0  0  0  0  0  0  0  0  0  0  0  0
   10.4790    5.5550   22.9720 C   0  0  0  0  0  0  0  0  0  0  0  0
   10.8060    6.3920   24.1040 O   0  0  0  0  0  0  0  0  0  0  0  0
   12.1030    6.3050   24.7110 N   0  0  0  0  0  0  0  0  0  0  0  0
   12.9330    5.5470   24.2220 O   0  0  0  0  0  0  0  0  0  0  0  0
   12.3190    7.1140   25.6040 O   0  0  0  0  0  0  0  0  0  0  0  0
   10.1260    0.7410   22.6340 C   0  0  0  0  0  0  0  0  0  0  0  0
  1  2  2  0
  2 10  1  0
  2  3  1  0
  3  4  1  0
  4  5  2  0
  4  9  1  0
  5  6  1  0
  6  7  2  0
  7  8  1  0
  8  9  2  0
 10 11  1  0
 11 12  2  0
 11 24  1  0
 12 13  1  0
 13 14  2  0
 14 15  1  0
 15 16  1  0
 15 24  2  0
 16 17  1  0
 17 18  1  0
 18 19  1  0
 19 20  1  0
 20 21  1  0
 21 22  1  0
 21 23  2  0
M  CHG  2  21   1  22  -1
M  END
>  <original SMILES>  (1003) 
O=C(Nc1cccnc1)Nc1cccc(SCCCO[N+](=O)[O-])c1

>  <AutoDock Predicted Affinity>  (1003) 
-5.026124

>  <ref_pdb>  (1003) 
x0434_0

>  <ref_mols>  (1003) 
x0434_0

>  <creator>  (1003) 
Will Poole

>  <energy minimised>  (1003) 
True

$$$$
WPC2442_minimised.pdb
     RDKit          3D

 23 24  0  0  0  0  0  0  0  0999 V2000
    8.9840    0.5540   20.2420 O   0  0  0  0  0  0  0  0  0  0  0  0
    8.2980    0.1740   21.1670 C   0  0  0  0  0  0  0  0  0  0  0  0
    6.9330    0.1340   21.0900 N   0  0  0  0  0  0  0  0  0  0  0  0
    6.1830    0.5620   19.9660 C   0  0  0  0  0  0  0  0  0  0  0  0
    5.1630    1.5050   20.1410 C   0  0  0  0  0  0  0  0  0  0  0  0
    4.5390    2.0090   18.9930 C   0  0  0  0  0  0  0  0  0  0  0  0
    4.9450    1.5600   17.7270 C   0  0  0  0  0  0  0  0  0  0  0  0
    5.8850    0.6040   17.5480 N   0  0  0  0  0  0  0  0  0  0  0  0
    6.5060    0.1420   18.6550 C   0  0  0  0  0  0  0  0  0  0  0  0
    8.8200   -0.2590   22.3540 N   0  0  0  0  0  0  0  0  0  0  0  0
   10.2020   -0.3940   22.5890 C   0  0  0  0  0  0  0  0  0  0  0  0
   10.7370   -1.6680   22.8170 C   0  0  0  0  0  0  0  0  0  0  0  0
   12.1250   -1.8310   22.9120 C   0  0  0  0  0  0  0  0  0  0  0  0
   12.9720   -0.7190   22.7760 C   0  0  0  0  0  0  0  0  0  0  0  0
   12.4410    0.5660   22.6120 C   0  0  0  0  0  0  0  0  0  0  0  0
   13.6000    1.9220   22.5170 S   0  0  0  0  0  0  0  0  0  0  0  0
   12.6630    3.4300   22.0260 C   0  0  0  0  0  0  0  0  0  0  0  0
   12.0600    4.0860   23.2710 C   0  0  0  0  0  0  0  0  0  0  0  0
   11.3700    5.3320   22.9270 N   0  0  0  0  0  0  0  0  0  0  0  0
   10.8460    6.0570   24.1030 C   0  0  0  0  0  0  0  0  0  0  0  0
   11.9700    6.5420   25.0680 C   0  0  0  0  0  0  0  0  0  0  0  0
   12.0500    5.7240   26.2380 O   0  0  0  0  0  0  0  0  0  0  0  0
   11.0480    0.7260   22.5050 C   0  0  0  0  0  0  0  0  0  0  0  0
  1  2  2  0
  2 10  1  0
  2  3  1  0
  3  4  1  0
  4  5  2  0
  4  9  1  0
  5  6  1  0
  6  7  2  0
  7  8  1  0
  8  9  2  0
 10 11  1  0
 11 12  2  0
 11 23  1  0
 12 13  1  0
 13 14  2  0
 14 15  1  0
 15 16  1  0
 15 23  2  0
 16 17  1  0
 17 18  1  0
 18 19  1  0
 19 20  1  0
 20 21  1  0
 21 22  1  0
M  END
>  <original SMILES>  (1004) 
O=C(Nc1cccnc1)Nc1cccc(SCCNCCO)c1

>  <AutoDock Predicted Affinity>  (1004) 
-4.825238

>  <ref_pdb>  (1004) 
x0434_0

>  <ref_mols>  (1004) 
x0434_0

>  <creator>  (1004) 
Will Poole

>  <energy minimised>  (1004) 
True

$$$$
WPC2276_minimised.pdb
     RDKit          3D

 20 21  0  0  0  0  0  0  0  0999 V2000
    8.8750    0.6250   20.3270 O   0  0  0  0  0  0  0  0  0  0  0  0
    8.1250    0.4350   21.2620 C   0  0  0  0  0  0  0  0  0  0  0  0
    6.7820    0.2320   21.0950 N   0  0  0  0  0  0  0  0  0  0  0  0
    6.0830    0.5960   19.9180 C   0  0  0  0  0  0  0  0  0  0  0  0
    5.0600    1.5450   20.0220 C   0  0  0  0  0  0  0  0  0  0  0  0
    4.5100    2.0440   18.8350 C   0  0  0  0  0  0  0  0  0  0  0  0
    5.0010    1.5930   17.6030 C   0  0  0  0  0  0  0  0  0  0  0  0
    5.9420    0.6300   17.4890 N   0  0  0  0  0  0  0  0  0  0  0  0
    6.4860    0.1630   18.6340 C   0  0  0  0  0  0  0  0  0  0  0  0
    8.5290    0.4830   22.5650 N   0  0  0  0  0  0  0  0  0  0  0  0
    9.7690    1.0250   22.9530 C   0  0  0  0  0  0  0  0  0  0  0  0
   10.8970    0.2030   23.0800 C   0  0  0  0  0  0  0  0  0  0  0  0
   12.1460    0.7820   23.3530 C   0  0  0  0  0  0  0  0  0  0  0  0
   12.2600    2.1730   23.5010 C   0  0  0  0  0  0  0  0  0  0  0  0
   11.1300    3.0020   23.3780 C   0  0  0  0  0  0  0  0  0  0  0  0
   11.1740    4.7890   23.5270 S   0  0  0  0  0  0  0  0  0  0  0  0
   12.9240    5.3750   23.6050 C   0  0  0  0  0  0  0  0  0  0  0  0
   13.7880    5.0090   22.3820 C   0  0  0  0  0  0  0  0  0  0  0  0
   13.1340    5.3690   21.1790 O   0  0  0  0  0  0  0  0  0  0  0  0
    9.8870    2.4150   23.1010 C   0  0  0  0  0  0  0  0  0  0  0  0
  1  2  2  0
  2 10  1  0
  2  3  1  0
  3  4  1  0
  4  5  2  0
  4  9  1  0
  5  6  1  0
  6  7  2  0
  7  8  1  0
  8  9  2  0
 10 11  1  0
 11 12  2  0
 11 20  1  0
 12 13  1  0
 13 14  2  0
 14 15  1  0
 15 16  1  0
 15 20  2  0
 16 17  1  0
 17 18  1  0
 18 19  1  0
M  END
>  <original SMILES>  (1005) 
O=C(Nc1cccnc1)Nc1cccc(SCCO)c1

>  <AutoDock Predicted Affinity>  (1005) 
-5.203517

>  <ref_pdb>  (1005) 
x0434_0

>  <ref_mols>  (1005) 
x0434_0

>  <creator>  (1005) 
Will Poole

>  <energy minimised>  (1005) 
True

$$$$
WPC1436_minimised.pdb
     RDKit          3D

 23 24  0  0  0  0  0  0  0  0999 V2000
    9.4160    0.3050   20.7600 O   0  0  0  0  0  0  0  0  0  0  0  0
    8.8370   -0.4700   21.3070 C   0  0  0  0  0  0  0  0  0  0  0  0
    7.4840   -0.7250   21.1090 N   0  0  0  0  0  0  0  0  0  0  0  0
    6.7840   -0.0250   19.9660 C   0  0  0  0  0  0  0  0  0  0  0  0
    5.6250    0.7260   20.3140 C   0  0  0  0  0  0  0  0  0  0  0  0
    4.9720    1.3590   19.2250 C   0  0  0  0  0  0  0  0  0  0  0  0
    5.4180    1.2030   17.9400 C   0  0  0  0  0  0  0  0  0  0  0  0
    6.5670    0.5160   17.6210 N   0  0  0  0  0  0  0  0  0  0  0  0
    7.2220   -0.0670   18.7170 C   0  0  0  0  0  0  0  0  0  0  0  0
    9.3910   -1.4140   22.2360 N   0  0  0  0  0  0  0  0  0  0  0  0
   10.6540   -1.0390   22.8650 C   0  0  0  0  0  0  0  0  0  0  0  0
   11.8230   -1.2020   22.0000 C   0  0  0  0  0  0  0  0  0  0  0  0
   12.9550   -0.3390   22.3370 C   0  0  0  0  0  0  0  0  0  0  0  0
   12.7710    0.6860   23.1670 C   0  0  0  0  0  0  0  0  0  0  0  0
   11.5710    0.8950   23.8690 C   0  0  0  0  0  0  0  0  0  0  0  0
   10.7410    2.4460   23.7130 S   0  0  0  0  0  0  0  0  0  0  0  0
   11.8070    3.9970   24.1020 C   0  0  0  0  0  0  0  0  0  0  0  0
   13.2040    3.9760   23.4410 C   0  0  0  0  0  0  0  0  0  0  0  0
   13.3860    5.3460   22.5690 P   0  0  0  0  0  0  0  0  0  0  0  0
   13.9300    5.7420   21.2260 O   0  0  0  0  0  0  0  0  0  0  0  0
   13.1750    6.5390   23.4100 O   0  0  0  0  0  0  0  0  0  0  0  0
   14.6470    5.5490   21.9420 O   0  0  0  0  0  0  0  0  0  0  0  0
   10.5620   -0.2050   23.7880 C   0  0  0  0  0  0  0  0  0  0  0  0
  1  2  2  0
  2 10  1  0
  2  3  1  0
  3  4  1  0
  4  5  2  0
  4  9  1  0
  5  6  1  0
  6  7  2  0
  7  8  1  0
  8  9  2  0
 10 11  1  0
 11 12  2  0
 11 23  1  0
 12 13  1  0
 13 14  2  0
 14 15  1  0
 15 16  1  0
 15 23  2  0
 16 17  1  0
 17 18  1  0
 18 19  1  0
 19 20  2  0
 19 21  1  0
 19 22  1  0
M  END
>  <original SMILES>  (1006) 
O=C(Nc1cccnc1)Nc1cccc(SCCP(=O)(O)O)c1

>  <AutoDock Predicted Affinity>  (1006) 
-5.322421

>  <ref_pdb>  (1006) 
x0434_0

>  <ref_mols>  (1006) 
x0434_0

>  <creator>  (1006) 
Will Poole

>  <energy minimised>  (1006) 
True

$$$$
WPC1388_minimised.pdb
     RDKit          3D

 24 26  0  0  0  0  0  0  0  0999 V2000
    8.9390    0.8920   20.5530 O   0  0  0  0  0  0  0  0  0  0  0  0
    8.6570   -0.2530   20.8410 C   0  0  0  0  0  0  0  0  0  0  0  0
    7.4640   -0.8090   20.4670 N   0  0  0  0  0  0  0  0  0  0  0  0
    6.5390   -0.1320   19.6320 C   0  0  0  0  0  0  0  0  0  0  0  0
    5.7720    0.9260   20.1430 C   0  0  0  0  0  0  0  0  0  0  0  0
    4.9940    1.6700   19.2430 C   0  0  0  0  0  0  0  0  0  0  0  0
    5.0290    1.3580   17.8750 C   0  0  0  0  0  0  0  0  0  0  0  0
    5.7460    0.3230   17.3830 N   0  0  0  0  0  0  0  0  0  0  0  0
    6.4920   -0.3920   18.2500 C   0  0  0  0  0  0  0  0  0  0  0  0
    9.4970   -1.0650   21.5540 N   0  0  0  0  0  0  0  0  0  0  0  0
   10.6930   -0.5840   22.1220 C   0  0  0  0  0  0  0  0  0  0  0  0
   11.9500   -1.0030   21.6650 C   0  0  0  0  0  0  0  0  0  0  0  0
   13.1150   -0.3720   22.1380 C   0  0  0  0  0  0  0  0  0  0  0  0
   13.0170    0.6870   23.0590 C   0  0  0  0  0  0  0  0  0  0  0  0
   11.7530    1.0940   23.5130 C   0  0  0  0  0  0  0  0  0  0  0  0
   11.5320    2.4480   24.6290 S   0  0  0  0  0  0  0  0  0  0  0  0
   11.9690    3.9420   23.6500 C   0  0  0  0  0  0  0  0  0  0  0  0
   11.0630    5.1140   24.0870 C   0  0  0  0  0  0  0  0  0  0  0  0
    9.7720    5.0900   23.3240 C   0  0  0  0  0  0  0  0  0  0  0  0
    8.9580    3.9930   23.2100 C   0  0  0  0  0  0  0  0  0  0  0  0
    8.0550    4.3270   22.2260 N   0  0  0  0  0  0  0  0  0  0  0  0
    8.3900    5.5860   21.7930 C   0  0  0  0  0  0  0  0  0  0  0  0
    9.3790    6.1010   22.4990 N   0  0  0  0  0  0  0  0  0  0  0  0
   10.6040    0.4460   23.0610 C   0  0  0  0  0  0  0  0  0  0  0  0
  1  2  2  0
  2  3  1  0
  2 10  1  0
  3  4  1  0
  4  5  2  0
  4  9  1  0
  5  6  1  0
  6  7  2  0
  7  8  1  0
  8  9  2  0
 10 11  1  0
 11 24  1  0
 11 12  2  0
 12 13  1  0
 13 14  2  0
 14 15  1  0
 15 16  1  0
 15 24  2  0
 16 17  1  0
 17 18  1  0
 18 19  1  0
 19 20  2  0
 19 23  1  0
 20 21  1  0
 21 22  1  0
 22 23  2  0
M  END
>  <original SMILES>  (1007) 
O=C(Nc1cccnc1)Nc1cccc(SCCc2c[nH]cn2)c1

>  <AutoDock Predicted Affinity>  (1007) 
-5.104195

>  <ref_pdb>  (1007) 
x0434_0

>  <ref_mols>  (1007) 
x0434_0

>  <creator>  (1007) 
Will Poole

>  <energy minimised>  (1007) 
True

$$$$
WPC1145_minimised.pdb
     RDKit          3D

 24 26  0  0  0  0  0  0  0  0999 V2000
    8.5850    0.0700   19.8700 O   0  0  0  0  0  0  0  0  0  0  0  0
    7.9000   -0.3460   20.7840 C   0  0  0  0  0  0  0  0  0  0  0  0
    6.5340   -0.3240   20.7290 N   0  0  0  0  0  0  0  0  0  0  0  0
    5.8100    0.2910   19.6790 C   0  0  0  0  0  0  0  0  0  0  0  0
    4.8810    1.2960   19.9750 C   0  0  0  0  0  0  0  0  0  0  0  0
    4.3140    1.9950   18.9010 C   0  0  0  0  0  0  0  0  0  0  0  0
    4.6950    1.6790   17.5870 C   0  0  0  0  0  0  0  0  0  0  0  0
    5.5580    0.6810   17.2920 N   0  0  0  0  0  0  0  0  0  0  0  0
    6.1110    0.0170   18.3270 C   0  0  0  0  0  0  0  0  0  0  0  0
    8.4160   -0.8220   21.9560 N   0  0  0  0  0  0  0  0  0  0  0  0
    9.7790   -0.6890   22.2760 C   0  0  0  0  0  0  0  0  0  0  0  0
   10.7280   -1.5740   21.7480 C   0  0  0  0  0  0  0  0  0  0  0  0
   12.1000   -1.3000   21.8850 C   0  0  0  0  0  0  0  0  0  0  0  0
   12.5170   -0.1320   22.5430 C   0  0  0  0  0  0  0  0  0  0  0  0
   11.5610    0.7300   23.0970 C   0  0  0  0  0  0  0  0  0  0  0  0
   12.0610    2.2240   23.8980 S   0  0  0  0  0  0  0  0  0  0  0  0
   11.1030    3.5040   22.9930 C   0  0  0  0  0  0  0  0  0  0  0  0
   10.6020    4.5990   23.9490 C   0  0  0  0  0  0  0  0  0  0  0  0
   11.6520    5.4800   24.4710 N   0  0  0  0  0  0  0  0  0  0  0  0
   11.7240    6.0200   25.7350 C   0  0  0  0  0  0  0  0  0  0  0  0
   12.6730    7.0020   25.6800 C   0  0  0  0  0  0  0  0  0  0  0  0
   13.2230    7.0430   24.4280 N   0  0  0  0  0  0  0  0  0  0  0  0
   12.6810    6.0480   23.7550 C   0  0  0  0  0  0  0  0  0  0  0  0
   10.1950    0.4430   22.9800 C   0  0  0  0  0  0  0  0  0  0  0  0
  1  2  2  0
  2  3  1  0
  2 10  1  0
  3  4  1  0
  4  5  2  0
  4  9  1  0
  5  6  1  0
  6  7  2  0
  7  8  1  0
  8  9  2  0
 10 11  1  0
 11 24  1  0
 11 12  2  0
 12 13  1  0
 13 14  2  0
 14 15  1  0
 15 16  1  0
 15 24  2  0
 16 17  1  0
 17 18  1  0
 18 19  1  0
 19 20  1  0
 19 23  1  0
 20 21  2  0
 21 22  1  0
 22 23  2  0
M  END
>  <original SMILES>  (1008) 
O=C(Nc1cccnc1)Nc1cccc(SCCn2ccnc2)c1

>  <AutoDock Predicted Affinity>  (1008) 
-5.149397

>  <ref_pdb>  (1008) 
x0434_0

>  <ref_mols>  (1008) 
x0434_0

>  <creator>  (1008) 
Will Poole

>  <energy minimised>  (1008) 
True

$$$$
WPC2517_minimised.pdb
     RDKit          3D

 24 26  0  0  0  0  0  0  0  0999 V2000
    9.0650    0.1980   20.1370 O   0  0  0  0  0  0  0  0  0  0  0  0
    8.6060   -0.7200   20.7830 C   0  0  0  0  0  0  0  0  0  0  0  0
    7.2640   -0.9990   20.7250 N   0  0  0  0  0  0  0  0  0  0  0  0
    6.3910   -0.2960   19.8500 C   0  0  0  0  0  0  0  0  0  0  0  0
    5.5950    0.7500   20.3340 C   0  0  0  0  0  0  0  0  0  0  0  0
    4.8750    1.5180   19.4050 C   0  0  0  0  0  0  0  0  0  0  0  0
    4.9870    1.2340   18.0340 C   0  0  0  0  0  0  0  0  0  0  0  0
    5.7440    0.2210   17.5590 N   0  0  0  0  0  0  0  0  0  0  0  0
    6.4430   -0.5060   18.4550 C   0  0  0  0  0  0  0  0  0  0  0  0
    9.3760   -1.4830   21.6320 N   0  0  0  0  0  0  0  0  0  0  0  0
   10.5890   -0.9700   22.1470 C   0  0  0  0  0  0  0  0  0  0  0  0
   11.8300   -1.0910   21.5020 C   0  0  0  0  0  0  0  0  0  0  0  0
   12.9090   -0.2710   21.8890 C   0  0  0  0  0  0  0  0  0  0  0  0
   12.7090    0.7420   22.8440 C   0  0  0  0  0  0  0  0  0  0  0  0
   11.4580    0.8680   23.4630 C   0  0  0  0  0  0  0  0  0  0  0  0
   11.0710    2.2720   24.4790 S   0  0  0  0  0  0  0  0  0  0  0  0
    9.6820    3.1550   23.6190 C   0  0  0  0  0  0  0  0  0  0  0  0
    8.3930    2.3390   23.3070 C   0  0  0  0  0  0  0  0  0  0  0  0
    7.7330    1.5680   24.3920 N   0  0  0  0  0  0  0  0  0  0  0  0
    8.2140    1.1070   25.6090 C   0  0  0  0  0  0  0  0  0  0  0  0
    7.2750    0.4110   26.2120 N   0  0  0  0  0  0  0  0  0  0  0  0
    6.2230    0.4540   25.3460 C   0  0  0  0  0  0  0  0  0  0  0  0
    6.4510    1.1460   24.2400 N   0  0  0  0  0  0  0  0  0  0  0  0
   10.4540   -0.0620   23.1900 C   0  0  0  0  0  0  0  0  0  0  0  0
  1  2  2  0
  2  3  1  0
  2 10  1  0
  3  4  1  0
  4  5  2  0
  4  9  1  0
  5  6  1  0
  6  7  2  0
  7  8  1  0
  8  9  2  0
 10 11  1  0
 11 24  1  0
 11 12  2  0
 12 13  1  0
 13 14  2  0
 14 15  1  0
 15 16  1  0
 15 24  2  0
 16 17  1  0
 17 18  1  0
 18 19  1  0
 19 20  1  0
 19 23  1  0
 20 21  2  0
 21 22  1  0
 22 23  2  0
M  END
>  <original SMILES>  (1009) 
O=C(Nc1cccnc1)Nc1cccc(SCCn2cncn2)c1

>  <AutoDock Predicted Affinity>  (1009) 
-5.434648

>  <ref_pdb>  (1009) 
x0434_0

>  <ref_mols>  (1009) 
x0434_0

>  <creator>  (1009) 
Will Poole

>  <energy minimised>  (1009) 
True

$$$$
WPC1397_minimised.pdb
     RDKit          3D

 24 26  0  0  0  0  0  0  0  0999 V2000
    8.7740    0.1020   20.1140 O   0  0  0  0  0  0  0  0  0  0  0  0
    8.0670   -0.4020   20.9640 C   0  0  0  0  0  0  0  0  0  0  0  0
    6.7040   -0.4030   20.8500 N   0  0  0  0  0  0  0  0  0  0  0  0
    6.0090    0.2440   19.7970 C   0  0  0  0  0  0  0  0  0  0  0  0
    5.0790    1.2500   20.0890 C   0  0  0  0  0  0  0  0  0  0  0  0
    4.5340    1.9670   19.0140 C   0  0  0  0  0  0  0  0  0  0  0  0
    4.9310    1.6650   17.7020 C   0  0  0  0  0  0  0  0  0  0  0  0
    5.7980    0.6690   17.4090 N   0  0  0  0  0  0  0  0  0  0  0  0
    6.3370   -0.0050   18.4450 C   0  0  0  0  0  0  0  0  0  0  0  0
    8.5480   -0.9620   22.1190 N   0  0  0  0  0  0  0  0  0  0  0  0
    9.8880   -0.8010   22.5190 C   0  0  0  0  0  0  0  0  0  0  0  0
   10.9200   -1.4070   21.7890 C   0  0  0  0  0  0  0  0  0  0  0  0
   12.2480   -0.9750   21.9430 C   0  0  0  0  0  0  0  0  0  0  0  0
   12.5310    0.0950   22.8070 C   0  0  0  0  0  0  0  0  0  0  0  0
   11.4960    0.6720   23.5590 C   0  0  0  0  0  0  0  0  0  0  0  0
   11.7770    2.1460   24.4950 S   0  0  0  0  0  0  0  0  0  0  0  0
   11.7660    3.4860   23.2330 C   0  0  0  0  0  0  0  0  0  0  0  0
   10.3520    3.9160   22.8870 C   0  0  0  0  0  0  0  0  0  0  0  0
    9.9330    5.2340   23.1320 C   0  0  0  0  0  0  0  0  0  0  0  0
    8.6620    5.6530   22.7100 C   0  0  0  0  0  0  0  0  0  0  0  0
    7.7800    4.7420   22.1030 C   0  0  0  0  0  0  0  0  0  0  0  0
    8.1800    3.4170   21.8970 C   0  0  0  0  0  0  0  0  0  0  0  0
    9.4800    3.0270   22.2340 C   0  0  0  0  0  0  0  0  0  0  0  0
   10.1890    0.1830   23.4650 C   0  0  0  0  0  0  0  0  0  0  0  0
  1  2  2  0
  2  3  1  0
  2 10  1  0
  3  4  1  0
  4  5  2  0
  4  9  1  0
  5  6  1  0
  6  7  2  0
  7  8  1  0
  8  9  2  0
 10 11  1  0
 11 24  1  0
 11 12  2  0
 12 13  1  0
 13 14  2  0
 14 15  1  0
 15 16  1  0
 15 24  2  0
 16 17  1  0
 17 18  1  0
 18 19  2  0
 18 23  1  0
 19 20  1  0
 20 21  2  0
 21 22  1  0
 22 23  2  0
M  END
>  <original SMILES>  (1010) 
O=C(Nc1cccnc1)Nc1cccc(SCc2ccccc2)c1

>  <AutoDock Predicted Affinity>  (1010) 
-5.8696

>  <ref_pdb>  (1010) 
x0434_0

>  <ref_mols>  (1010) 
x0434_0

>  <creator>  (1010) 
Will Poole

>  <energy minimised>  (1010) 
True

$$$$
WPC2060_minimised.pdb
     RDKit          3D

 24 26  0  0  0  0  0  0  0  0999 V2000
    8.8410    0.2270   20.1650 O   0  0  0  0  0  0  0  0  0  0  0  0
    8.1540   -0.3370   20.9930 C   0  0  0  0  0  0  0  0  0  0  0  0
    6.7940   -0.4010   20.8630 N   0  0  0  0  0  0  0  0  0  0  0  0
    6.0840    0.2310   19.8110 C   0  0  0  0  0  0  0  0  0  0  0  0
    5.1430    1.2270   20.1020 C   0  0  0  0  0  0  0  0  0  0  0  0
    4.5910    1.9380   19.0260 C   0  0  0  0  0  0  0  0  0  0  0  0
    4.9890    1.6350   17.7140 C   0  0  0  0  0  0  0  0  0  0  0  0
    5.8640    0.6470   17.4230 N   0  0  0  0  0  0  0  0  0  0  0  0
    6.4120   -0.0200   18.4600 C   0  0  0  0  0  0  0  0  0  0  0  0
    8.6530   -0.8990   22.1400 N   0  0  0  0  0  0  0  0  0  0  0  0
    9.9760   -0.6650   22.5650 C   0  0  0  0  0  0  0  0  0  0  0  0
   11.0560   -1.2150   21.8600 C   0  0  0  0  0  0  0  0  0  0  0  0
   12.3560   -0.7200   22.0560 C   0  0  0  0  0  0  0  0  0  0  0  0
   12.5600    0.3640   22.9260 C   0  0  0  0  0  0  0  0  0  0  0  0
   11.4740    0.8970   23.6380 C   0  0  0  0  0  0  0  0  0  0  0  0
   11.6480    2.4050   24.5510 S   0  0  0  0  0  0  0  0  0  0  0  0
   11.6370    3.7210   23.2600 C   0  0  0  0  0  0  0  0  0  0  0  0
   10.2270    4.0650   22.8310 C   0  0  0  0  0  0  0  0  0  0  0  0
    9.4140    3.1110   22.1970 C   0  0  0  0  0  0  0  0  0  0  0  0
    8.1050    3.4390   21.8440 C   0  0  0  0  0  0  0  0  0  0  0  0
    7.6990    4.7590   22.0460 C   0  0  0  0  0  0  0  0  0  0  0  0
    8.5910    5.6660   22.6450 C   0  0  0  0  0  0  0  0  0  0  0  0
    9.8160    5.3230   23.0810 N   0  0  0  0  0  0  0  0  0  0  0  0
   10.1980    0.3370   23.5140 C   0  0  0  0  0  0  0  0  0  0  0  0
  1  2  2  0
  2  3  1  0
  2 10  1  0
  3  4  1  0
  4  5  2  0
  4  9  1  0
  5  6  1  0
  6  7  2  0
  7  8  1  0
  8  9  2  0
 10 11  1  0
 11 24  1  0
 11 12  2  0
 12 13  1  0
 13 14  2  0
 14 15  1  0
 15 16  1  0
 15 24  2  0
 16 17  1  0
 17 18  1  0
 18 19  2  0
 18 23  1  0
 19 20  1  0
 20 21  2  0
 21 22  1  0
 22 23  2  0
M  END
>  <original SMILES>  (1011) 
O=C(Nc1cccnc1)Nc1cccc(SCc2ccccn2)c1

>  <AutoDock Predicted Affinity>  (1011) 
-5.657385

>  <ref_pdb>  (1011) 
x0434_0

>  <ref_mols>  (1011) 
x0434_0

>  <creator>  (1011) 
Will Poole

>  <energy minimised>  (1011) 
True

$$$$
WPC2283_minimised.pdb
     RDKit          3D

 24 26  0  0  0  0  0  0  0  0999 V2000
    8.7470   -0.4880   19.1550 O   0  0  0  0  0  0  0  0  0  0  0  0
    8.0960   -0.6550   20.1650 C   0  0  0  0  0  0  0  0  0  0  0  0
    6.7570   -0.3960   20.2380 N   0  0  0  0  0  0  0  0  0  0  0  0
    6.0130    0.3220   19.2740 C   0  0  0  0  0  0  0  0  0  0  0  0
    5.1180    1.3140   19.6920 C   0  0  0  0  0  0  0  0  0  0  0  0
    4.4910    2.0890   18.7080 C   0  0  0  0  0  0  0  0  0  0  0  0
    4.7960    1.8690   17.3570 C   0  0  0  0  0  0  0  0  0  0  0  0
    5.6270    0.8870   16.9480 N   0  0  0  0  0  0  0  0  0  0  0  0
    6.2190    0.1350   17.8950 C   0  0  0  0  0  0  0  0  0  0  0  0
    8.6120   -1.0600   21.3600 N   0  0  0  0  0  0  0  0  0  0  0  0
    9.9240   -0.7640   21.7690 C   0  0  0  0  0  0  0  0  0  0  0  0
   10.8650   -1.7620   22.0520 C   0  0  0  0  0  0  0  0  0  0  0  0
   12.1450   -1.4020   22.5080 C   0  0  0  0  0  0  0  0  0  0  0  0
   12.4430   -0.0510   22.7740 C   0  0  0  0  0  0  0  0  0  0  0  0
   11.4700    0.9350   22.5550 C   0  0  0  0  0  0  0  0  0  0  0  0
   11.7200    2.6130   23.1010 S   0  0  0  0  0  0  0  0  0  0  0  0
   10.2760    2.8920   24.2240 C   0  0  0  0  0  0  0  0  0  0  0  0
    8.9590    3.0950   23.4830 C   0  0  0  0  0  0  0  0  0  0  0  0
    8.7590    4.2410   22.7000 C   0  0  0  0  0  0  0  0  0  0  0  0
    7.5330    4.3860   22.0380 C   0  0  0  0  0  0  0  0  0  0  0  0
    6.5460    3.4030   22.1880 C   0  0  0  0  0  0  0  0  0  0  0  0
    6.7190    2.3040   22.9580 N   0  0  0  0  0  0  0  0  0  0  0  0
    7.9080    2.1590   23.5830 C   0  0  0  0  0  0  0  0  0  0  0  0
   10.2480    0.5790   21.9770 C   0  0  0  0  0  0  0  0  0  0  0  0
  1  2  2  0
  2  3  1  0
  2 10  1  0
  3  4  1  0
  4  5  2  0
  4  9  1  0
  5  6  1  0
  6  7  2  0
  7  8  1  0
  8  9  2  0
 10 11  1  0
 11 24  1  0
 11 12  2  0
 12 13  1  0
 13 14  2  0
 14 15  1  0
 15 16  1  0
 15 24  2  0
 16 17  1  0
 17 18  1  0
 18 19  2  0
 18 23  1  0
 19 20  1  0
 20 21  2  0
 21 22  1  0
 22 23  2  0
M  END
>  <original SMILES>  (1012) 
O=C(Nc1cccnc1)Nc1cccc(SCc2cccnc2)c1

>  <AutoDock Predicted Affinity>  (1012) 
-5.729093

>  <ref_pdb>  (1012) 
x0434_0

>  <ref_mols>  (1012) 
x0434_0

>  <creator>  (1012) 
Will Poole

>  <energy minimised>  (1012) 
True

$$$$
WPC2642_minimised.pdb
     RDKit          3D

 24 26  0  0  0  0  0  0  0  0999 V2000
    8.5220    0.1010   19.7870 O   0  0  0  0  0  0  0  0  0  0  0  0
    7.8280   -0.1960   20.7390 C   0  0  0  0  0  0  0  0  0  0  0  0
    6.4620   -0.1390   20.6900 N   0  0  0  0  0  0  0  0  0  0  0  0
    5.7420    0.4420   19.6180 C   0  0  0  0  0  0  0  0  0  0  0  0
    4.7990    1.4410   19.8860 C   0  0  0  0  0  0  0  0  0  0  0  0
    4.2340    2.1120   18.7940 C   0  0  0  0  0  0  0  0  0  0  0  0
    4.6350    1.7780   17.4910 C   0  0  0  0  0  0  0  0  0  0  0  0
    5.5070    0.7800   17.2220 N   0  0  0  0  0  0  0  0  0  0  0  0
    6.0530    0.1390   18.2740 C   0  0  0  0  0  0  0  0  0  0  0  0
    8.3330   -0.5640   21.9530 N   0  0  0  0  0  0  0  0  0  0  0  0
    9.7050   -0.4890   22.2560 C   0  0  0  0  0  0  0  0  0  0  0  0
   10.5970   -1.4300   21.7230 C   0  0  0  0  0  0  0  0  0  0  0  0
   11.9810   -1.2570   21.8810 C   0  0  0  0  0  0  0  0  0  0  0  0
   12.4670   -0.1410   22.5770 C   0  0  0  0  0  0  0  0  0  0  0  0
   11.5710    0.7790   23.1380 C   0  0  0  0  0  0  0  0  0  0  0  0
   12.2080    2.1760   24.0160 S   0  0  0  0  0  0  0  0  0  0  0  0
   11.3090    3.5970   23.2840 C   0  0  0  0  0  0  0  0  0  0  0  0
   12.0000    4.8830   23.6800 C   0  0  0  0  0  0  0  0  0  0  0  0
   11.6110    5.6140   24.8120 C   0  0  0  0  0  0  0  0  0  0  0  0
   12.3200    6.7750   25.1560 C   0  0  0  0  0  0  0  0  0  0  0  0
   13.3380    7.2480   24.4150 N   0  0  0  0  0  0  0  0  0  0  0  0
   13.7240    6.5350   23.3380 C   0  0  0  0  0  0  0  0  0  0  0  0
   13.0890    5.3550   22.9390 C   0  0  0  0  0  0  0  0  0  0  0  0
   10.1900    0.6080   22.9770 C   0  0  0  0  0  0  0  0  0  0  0  0
  1  2  2  0
  2  3  1  0
  2 10  1  0
  3  4  1  0
  4  5  2  0
  4  9  1  0
  5  6  1  0
  6  7  2  0
  7  8  1  0
  8  9  2  0
 10 11  1  0
 11 24  1  0
 11 12  2  0
 12 13  1  0
 13 14  2  0
 14 15  1  0
 15 16  1  0
 15 24  2  0
 16 17  1  0
 17 18  1  0
 18 19  2  0
 18 23  1  0
 19 20  1  0
 20 21  2  0
 21 22  1  0
 22 23  2  0
M  END
>  <original SMILES>  (1013) 
O=C(Nc1cccnc1)Nc1cccc(SCc2ccncc2)c1

>  <AutoDock Predicted Affinity>  (1013) 
-5.645157

>  <ref_pdb>  (1013) 
x0434_0

>  <ref_mols>  (1013) 
x0434_0

>  <creator>  (1013) 
Will Poole

>  <energy minimised>  (1013) 
True

$$$$
WPC1330_minimised.pdb
     RDKit          3D

 23 25  0  0  0  0  0  0  0  0999 V2000
    8.7390    0.2550   19.9770 O   0  0  0  0  0  0  0  0  0  0  0  0
    8.0740   -0.2040   20.8830 C   0  0  0  0  0  0  0  0  0  0  0  0
    6.7100   -0.2700   20.8120 N   0  0  0  0  0  0  0  0  0  0  0  0
    5.9670    0.3080   19.7530 C   0  0  0  0  0  0  0  0  0  0  0  0
    5.0220    1.3030   20.0330 C   0  0  0  0  0  0  0  0  0  0  0  0
    4.4460    1.9770   18.9470 C   0  0  0  0  0  0  0  0  0  0  0  0
    4.8320    1.6460   17.6390 C   0  0  0  0  0  0  0  0  0  0  0  0
    5.7080    0.6560   17.3590 N   0  0  0  0  0  0  0  0  0  0  0  0
    6.2730    0.0180   18.4040 C   0  0  0  0  0  0  0  0  0  0  0  0
    8.6180   -0.6450   22.0570 N   0  0  0  0  0  0  0  0  0  0  0  0
    9.9730   -0.4310   22.3750 C   0  0  0  0  0  0  0  0  0  0  0  0
   10.9450   -1.3960   22.0740 C   0  0  0  0  0  0  0  0  0  0  0  0
   12.3060   -1.0810   22.2150 C   0  0  0  0  0  0  0  0  0  0  0  0
   12.6860    0.2020   22.6460 C   0  0  0  0  0  0  0  0  0  0  0  0
   11.7120    1.1620   22.9610 C   0  0  0  0  0  0  0  0  0  0  0  0
   12.2380    2.8060   23.4100 S   0  0  0  0  0  0  0  0  0  0  0  0
   10.8790    3.5680   24.3980 C   0  0  0  0  0  0  0  0  0  0  0  0
    9.9950    4.4790   23.6030 C   0  0  0  0  0  0  0  0  0  0  0  0
    9.2140    4.1110   22.5370 N   0  0  0  0  0  0  0  0  0  0  0  0
    8.5380    5.2360   22.1230 C   0  0  0  0  0  0  0  0  0  0  0  0
    9.0000    6.2440   22.9210 C   0  0  0  0  0  0  0  0  0  0  0  0
    9.8670    5.7630   23.8680 N   0  0  0  0  0  0  0  0  0  0  0  0
   10.3540    0.8330   22.8380 C   0  0  0  0  0  0  0  0  0  0  0  0
  1  2  2  0
  2  3  1  0
  2 10  1  0
  3  4  1  0
  4  5  2  0
  4  9  1  0
  5  6  1  0
  6  7  2  0
  7  8  1  0
  8  9  2  0
 10 11  1  0
 11 23  1  0
 11 12  2  0
 12 13  1  0
 13 14  2  0
 14 15  1  0
 15 16  1  0
 15 23  2  0
 16 17  1  0
 17 18  1  0
 18 19  1  0
 18 22  2  0
 19 20  1  0
 20 21  2  0
 21 22  1  0
M  END
>  <original SMILES>  (1014) 
O=C(Nc1cccnc1)Nc1cccc(SCc2ncc[nH]2)c1

>  <AutoDock Predicted Affinity>  (1014) 
-5.760823

>  <ref_pdb>  (1014) 
x0434_0

>  <ref_mols>  (1014) 
x0434_0

>  <creator>  (1014) 
Will Poole

>  <energy minimised>  (1014) 
True

$$$$
WPC2383_minimised.pdb
     RDKit          3D

 24 26  0  0  0  0  0  0  0  0999 V2000
    8.6450    0.0260   19.7510 O   0  0  0  0  0  0  0  0  0  0  0  0
    7.9700   -0.2970   20.7070 C   0  0  0  0  0  0  0  0  0  0  0  0
    6.6030   -0.2590   20.6800 N   0  0  0  0  0  0  0  0  0  0  0  0
    5.8610    0.3320   19.6290 C   0  0  0  0  0  0  0  0  0  0  0  0
    4.9290    1.3350   19.9260 C   0  0  0  0  0  0  0  0  0  0  0  0
    4.3420    2.0150   18.8510 C   0  0  0  0  0  0  0  0  0  0  0  0
    4.7110    1.6890   17.5380 C   0  0  0  0  0  0  0  0  0  0  0  0
    5.5710    0.6890   17.2420 N   0  0  0  0  0  0  0  0  0  0  0  0
    6.1400    0.0390   18.2760 C   0  0  0  0  0  0  0  0  0  0  0  0
    8.5010   -0.6740   21.9060 N   0  0  0  0  0  0  0  0  0  0  0  0
    9.8670   -0.5390   22.2090 C   0  0  0  0  0  0  0  0  0  0  0  0
   10.8070   -1.4390   21.6890 C   0  0  0  0  0  0  0  0  0  0  0  0
   12.1810   -1.2140   21.8750 C   0  0  0  0  0  0  0  0  0  0  0  0
   12.6120   -0.0840   22.5890 C   0  0  0  0  0  0  0  0  0  0  0  0
   11.6640    0.7970   23.1290 C   0  0  0  0  0  0  0  0  0  0  0  0
   12.1620    2.2220   24.0430 S   0  0  0  0  0  0  0  0  0  0  0  0
   12.7470    3.3630   22.7330 C   0  0  0  0  0  0  0  0  0  0  0  0
   12.3120    4.6700   23.2180 N   0  0  0  0  0  0  0  0  0  0  0  0
   12.8210    5.4830   24.2190 C   0  0  0  0  0  0  0  0  0  0  0  0
   11.7980    6.3470   24.4950 C   0  0  0  0  0  0  0  0  0  0  0  0
   10.6400    6.1200   23.6600 C   0  0  0  0  0  0  0  0  0  0  0  0
    9.6370    6.7870   23.5570 O   0  0  0  0  0  0  0  0  0  0  0  0
   10.9710    5.0300   22.9250 N   0  0  0  0  0  0  0  0  0  0  0  0
   10.2970    0.5750   22.9370 C   0  0  0  0  0  0  0  0  0  0  0  0
  1  2  2  0
  2 10  1  0
  2  3  1  0
  3  4  1  0
  4  5  2  0
  4  9  1  0
  5  6  1  0
  6  7  2  0
  7  8  1  0
  8  9  2  0
 10 11  1  0
 11 12  2  0
 11 24  1  0
 12 13  1  0
 13 14  2  0
 14 15  1  0
 15 16  1  0
 15 24  2  0
 16 17  1  0
 17 18  1  0
 18 19  1  0
 18 23  1  0
 19 20  2  0
 20 21  1  0
 21 22  2  0
 21 23  1  0
M  END
>  <original SMILES>  (1015) 
O=C(Nc1cccnc1)Nc1cccc(SCn2ccc(=O)[nH]2)c1

>  <AutoDock Predicted Affinity>  (1015) 
-5.678773

>  <ref_pdb>  (1015) 
x0434_0

>  <ref_mols>  (1015) 
x0434_0

>  <creator>  (1015) 
Will Poole

>  <energy minimised>  (1015) 
True

$$$$
WPC1585_minimised.pdb
     RDKit          3D

 21 22  0  0  0  0  0  0  0  0999 V2000
    9.4500    0.6440   20.7740 O   0  0  0  0  0  0  0  0  0  0  0  0
    8.8280   -0.2850   21.2980 C   0  0  0  0  0  0  0  0  0  0  0  0
    7.5310   -0.5980   21.0100 N   0  0  0  0  0  0  0  0  0  0  0  0
    6.7980   -0.0110   19.9620 C   0  0  0  0  0  0  0  0  0  0  0  0
    5.5810    0.6460   20.1820 C   0  0  0  0  0  0  0  0  0  0  0  0
    4.9420    1.2610   19.1420 C   0  0  0  0  0  0  0  0  0  0  0  0
    5.5090    1.2380   17.8480 C   0  0  0  0  0  0  0  0  0  0  0  0
    6.6700    0.5740   17.6040 N   0  0  0  0  0  0  0  0  0  0  0  0
    7.3120    0.0060   18.6330 C   0  0  0  0  0  0  0  0  0  0  0  0
    9.4010   -1.0820   22.2860 N   0  0  0  0  0  0  0  0  0  0  0  0
   10.6770   -0.8200   22.8330 C   0  0  0  0  0  0  0  0  0  0  0  0
   11.8470   -1.0710   22.0490 C   0  0  0  0  0  0  0  0  0  0  0  0
   13.0390   -0.3760   22.3760 C   0  0  0  0  0  0  0  0  0  0  0  0
   13.0190    0.6670   23.3420 C   0  0  0  0  0  0  0  0  0  0  0  0
   11.7870    0.9950   23.8620 C   0  0  0  0  0  0  0  0  0  0  0  0
   10.8820    2.3130   24.0680 S   0  0  0  0  0  0  0  0  0  0  0  0
   11.9890    4.2620   23.5620 S   0  0  0  0  0  0  0  0  0  0  0  0
   11.3380    5.2500   24.1640 O   0  0  0  0  0  0  0  0  0  0  0  0
   13.2620    4.4210   22.8990 O   0  0  0  0  0  0  0  0  0  0  0  0
   11.8400    4.8900   24.9740 O   0  0  0  0  0  0  0  0  0  0  0  0
   10.7980    0.0230   23.9350 C   0  0  0  0  0  0  0  0  0  0  0  0
  1  2  2  0
  2 10  1  0
  2  3  1  0
  3  4  1  0
  4  5  2  0
  4  9  1  0
  5  6  1  0
  6  7  2  0
  7  8  1  0
  8  9  2  0
 10 11  1  0
 11 12  2  0
 11 21  1  0
 12 13  1  0
 13 14  2  0
 14 15  1  0
 15 16  1  0
 15 21  2  0
 16 17  1  0
 17 18  2  0
 17 19  2  0
 17 20  1  0
M  END
>  <original SMILES>  (1016) 
O=C(Nc1cccnc1)Nc1cccc(SS(=O)(=O)O)c1

>  <AutoDock Predicted Affinity>  (1016) 
-6.08193

>  <ref_pdb>  (1016) 
x0434_0

>  <ref_mols>  (1016) 
x0434_0

>  <creator>  (1016) 
Will Poole

>  <energy minimised>  (1016) 
True

$$$$
WPC2379_minimised.pdb
     RDKit          3D

 23 25  0  0  0  0  0  0  0  0999 V2000
    8.6960    0.2570   19.8890 O   0  0  0  0  0  0  0  0  0  0  0  0
    7.9070   -0.0270   20.7670 C   0  0  0  0  0  0  0  0  0  0  0  0
    6.5640    0.1990   20.6630 N   0  0  0  0  0  0  0  0  0  0  0  0
    5.8950    0.7530   19.5490 C   0  0  0  0  0  0  0  0  0  0  0  0
    4.8830    1.6960   19.7600 C   0  0  0  0  0  0  0  0  0  0  0  0
    4.2990    2.2840   18.6320 C   0  0  0  0  0  0  0  0  0  0  0  0
    4.7440    1.9230   17.3520 C   0  0  0  0  0  0  0  0  0  0  0  0
    5.6790    0.9690   17.1370 N   0  0  0  0  0  0  0  0  0  0  0  0
    6.2530    0.4160   18.2250 C   0  0  0  0  0  0  0  0  0  0  0  0
    8.2400   -0.6240   21.9480 N   0  0  0  0  0  0  0  0  0  0  0  0
    9.5110   -1.1150   22.3030 C   0  0  0  0  0  0  0  0  0  0  0  0
    9.5960   -2.3840   22.8930 C   0  0  0  0  0  0  0  0  0  0  0  0
   10.8470   -2.9090   23.2410 C   0  0  0  0  0  0  0  0  0  0  0  0
   12.0060   -2.1510   23.0180 C   0  0  0  0  0  0  0  0  0  0  0  0
   11.9280   -0.8530   22.4890 C   0  0  0  0  0  0  0  0  0  0  0  0
   13.4270    0.1210   22.3430 S   0  0  0  0  0  0  0  0  0  0  0  0
   12.9760    1.7630   22.9190 C   0  0  0  0  0  0  0  0  0  0  0  0
   13.7720    2.8520   22.5210 C   0  0  0  0  0  0  0  0  0  0  0  0
   13.4120    4.1670   22.8600 C   0  0  0  0  0  0  0  0  0  0  0  0
   12.2520    4.4020   23.6160 C   0  0  0  0  0  0  0  0  0  0  0  0
   11.4780    3.3170   24.0610 C   0  0  0  0  0  0  0  0  0  0  0  0
   11.8510    2.0020   23.7330 C   0  0  0  0  0  0  0  0  0  0  0  0
   10.6750   -0.3540   22.0910 C   0  0  0  0  0  0  0  0  0  0  0  0
  1  2  2  0
  2  3  1  0
  2 10  1  0
  3  4  1  0
  4  5  2  0
  4  9  1  0
  5  6  1  0
  6  7  2  0
  7  8  1  0
  8  9  2  0
 10 11  1  0
 11 23  1  0
 11 12  2  0
 12 13  1  0
 13 14  2  0
 14 15  1  0
 15 16  1  0
 15 23  2  0
 16 17  1  0
 17 18  2  0
 17 22  1  0
 18 19  1  0
 19 20  2  0
 20 21  1  0
 21 22  2  0
M  END
>  <original SMILES>  (1017) 
O=C(Nc1cccnc1)Nc1cccc(Sc2ccccc2)c1

>  <AutoDock Predicted Affinity>  (1017) 
-6.836275

>  <ref_pdb>  (1017) 
x0434_0

>  <ref_mols>  (1017) 
x0434_0

>  <creator>  (1017) 
Will Poole

>  <energy minimised>  (1017) 
True

$$$$
WPC2346_minimised.pdb
     RDKit          3D

 24 26  0  0  0  0  0  0  0  0999 V2000
    8.6530    0.1710   20.0970 O   0  0  0  0  0  0  0  0  0  0  0  0
    7.9420   -0.2820   20.9750 C   0  0  0  0  0  0  0  0  0  0  0  0
    6.5780   -0.2710   20.8680 N   0  0  0  0  0  0  0  0  0  0  0  0
    5.8910    0.3340   19.7860 C   0  0  0  0  0  0  0  0  0  0  0  0
    4.9530    1.3440   20.0370 C   0  0  0  0  0  0  0  0  0  0  0  0
    4.4230    2.0280   18.9340 C   0  0  0  0  0  0  0  0  0  0  0  0
    4.8460    1.6940   17.6380 C   0  0  0  0  0  0  0  0  0  0  0  0
    5.7140    0.6890   17.3840 N   0  0  0  0  0  0  0  0  0  0  0  0
    6.2350    0.0420   18.4470 C   0  0  0  0  0  0  0  0  0  0  0  0
    8.4280   -0.7970   22.1490 N   0  0  0  0  0  0  0  0  0  0  0  0
    9.7930   -0.6940   22.4700 C   0  0  0  0  0  0  0  0  0  0  0  0
   10.7250   -1.4970   21.8000 C   0  0  0  0  0  0  0  0  0  0  0  0
   12.0840   -1.1490   21.8040 C   0  0  0  0  0  0  0  0  0  0  0  0
   12.4910    0.0400   22.4280 C   0  0  0  0  0  0  0  0  0  0  0  0
   11.5530    0.8410   23.0980 C   0  0  0  0  0  0  0  0  0  0  0  0
   12.0890    2.4080   23.7470 S   0  0  0  0  0  0  0  0  0  0  0  0
   10.8450    3.6600   23.3830 C   0  0  0  0  0  0  0  0  0  0  0  0
    9.6840    3.4320   22.6110 C   0  0  0  0  0  0  0  0  0  0  0  0
    8.7410    4.4550   22.4140 C   0  0  0  0  0  0  0  0  0  0  0  0
    8.9800    5.7370   22.9210 C   0  0  0  0  0  0  0  0  0  0  0  0
   10.1560    5.9890   23.6380 C   0  0  0  0  0  0  0  0  0  0  0  0
   11.0780    4.9610   23.8670 C   0  0  0  0  0  0  0  0  0  0  0  0
   12.2140    5.2580   24.5330 F   0  0  0  0  0  0  0  0  0  0  0  0
   10.2210    0.4180   23.2020 C   0  0  0  0  0  0  0  0  0  0  0  0
  1  2  2  0
  2  3  1  0
  2 10  1  0
  3  4  1  0
  4  5  2  0
  4  9  1  0
  5  6  1  0
  6  7  2  0
  7  8  1  0
  8  9  2  0
 10 11  1  0
 11 24  1  0
 11 12  2  0
 12 13  1  0
 13 14  2  0
 14 15  1  0
 15 16  1  0
 15 24  2  0
 16 17  1  0
 17 18  2  0
 17 22  1  0
 18 19  1  0
 19 20  2  0
 20 21  1  0
 21 22  2  0
 22 23  1  0
M  END
>  <original SMILES>  (1018) 
O=C(Nc1cccnc1)Nc1cccc(Sc2ccccc2F)c1

>  <AutoDock Predicted Affinity>  (1018) 
-6.231865

>  <ref_pdb>  (1018) 
x0434_0

>  <ref_mols>  (1018) 
x0434_0

>  <creator>  (1018) 
Will Poole

>  <energy minimised>  (1018) 
True

$$$$
WPC2370_minimised.pdb
     RDKit          3D

 23 25  0  0  0  0  0  0  0  0999 V2000
    8.6140    0.1790   19.8370 O   0  0  0  0  0  0  0  0  0  0  0  0
    7.8380   -0.0550   20.7410 C   0  0  0  0  0  0  0  0  0  0  0  0
    6.4990    0.1990   20.6510 N   0  0  0  0  0  0  0  0  0  0  0  0
    5.8330    0.7590   19.5360 C   0  0  0  0  0  0  0  0  0  0  0  0
    4.8360    1.7170   19.7470 C   0  0  0  0  0  0  0  0  0  0  0  0
    4.2630    2.3150   18.6180 C   0  0  0  0  0  0  0  0  0  0  0  0
    4.7100    1.9560   17.3380 C   0  0  0  0  0  0  0  0  0  0  0  0
    5.6310    0.9890   17.1240 N   0  0  0  0  0  0  0  0  0  0  0  0
    6.1880    0.4200   18.2120 C   0  0  0  0  0  0  0  0  0  0  0  0
    8.1840   -0.6160   21.9370 N   0  0  0  0  0  0  0  0  0  0  0  0
    9.4790   -1.0400   22.3010 C   0  0  0  0  0  0  0  0  0  0  0  0
    9.6550   -2.3210   22.8440 C   0  0  0  0  0  0  0  0  0  0  0  0
   10.9430   -2.7670   23.1690 C   0  0  0  0  0  0  0  0  0  0  0  0
   12.0450   -1.9230   22.9680 C   0  0  0  0  0  0  0  0  0  0  0  0
   11.8730   -0.6100   22.5010 C   0  0  0  0  0  0  0  0  0  0  0  0
   13.3090    0.4610   22.3720 S   0  0  0  0  0  0  0  0  0  0  0  0
   12.7800    2.0920   22.9190 C   0  0  0  0  0  0  0  0  0  0  0  0
   13.6560    3.1730   22.7300 C   0  0  0  0  0  0  0  0  0  0  0  0
   13.2590    4.4730   23.0770 C   0  0  0  0  0  0  0  0  0  0  0  0
   11.9830    4.6340   23.6350 C   0  0  0  0  0  0  0  0  0  0  0  0
   11.1770    3.5000   23.8250 C   0  0  0  0  0  0  0  0  0  0  0  0
   11.5770    2.2590   23.4980 N   0  0  0  0  0  0  0  0  0  0  0  0
   10.5860   -0.1910   22.1250 C   0  0  0  0  0  0  0  0  0  0  0  0
  1  2  2  0
  2  3  1  0
  2 10  1  0
  3  4  1  0
  4  5  2  0
  4  9  1  0
  5  6  1  0
  6  7  2  0
  7  8  1  0
  8  9  2  0
 10 11  1  0
 11 23  1  0
 11 12  2  0
 12 13  1  0
 13 14  2  0
 14 15  1  0
 15 16  1  0
 15 23  2  0
 16 17  1  0
 17 18  2  0
 17 22  1  0
 18 19  1  0
 19 20  2  0
 20 21  1  0
 21 22  2  0
M  END
>  <original SMILES>  (1019) 
O=C(Nc1cccnc1)Nc1cccc(Sc2ccccn2)c1

>  <AutoDock Predicted Affinity>  (1019) 
-6.483005

>  <ref_pdb>  (1019) 
x0434_0

>  <ref_mols>  (1019) 
x0434_0

>  <creator>  (1019) 
Will Poole

>  <energy minimised>  (1019) 
True

$$$$
WPC2226_minimised.pdb
     RDKit          3D

 23 25  0  0  0  0  0  0  0  0999 V2000
    8.6200    0.3330   19.8420 O   0  0  0  0  0  0  0  0  0  0  0  0
    7.8880    0.0890   20.7790 C   0  0  0  0  0  0  0  0  0  0  0  0
    6.5320    0.2380   20.7110 N   0  0  0  0  0  0  0  0  0  0  0  0
    5.8240    0.7450   19.5960 C   0  0  0  0  0  0  0  0  0  0  0  0
    4.8310    1.7110   19.7980 C   0  0  0  0  0  0  0  0  0  0  0  0
    4.2420    2.2830   18.6640 C   0  0  0  0  0  0  0  0  0  0  0  0
    4.6720    1.8950   17.3870 C   0  0  0  0  0  0  0  0  0  0  0  0
    5.5860    0.9200   17.1810 N   0  0  0  0  0  0  0  0  0  0  0  0
    6.1560    0.3730   18.2740 C   0  0  0  0  0  0  0  0  0  0  0  0
    8.3300   -0.3630   21.9880 N   0  0  0  0  0  0  0  0  0  0  0  0
    9.6740   -0.6540   22.2840 C   0  0  0  0  0  0  0  0  0  0  0  0
   10.0160   -1.9470   22.7010 C   0  0  0  0  0  0  0  0  0  0  0  0
   11.3590   -2.2700   22.9350 C   0  0  0  0  0  0  0  0  0  0  0  0
   12.3510   -1.2920   22.7650 C   0  0  0  0  0  0  0  0  0  0  0  0
   12.0070    0.0280   22.4380 C   0  0  0  0  0  0  0  0  0  0  0  0
   13.2930    1.2720   22.4100 S   0  0  0  0  0  0  0  0  0  0  0  0
   12.5210    2.7520   23.0730 C   0  0  0  0  0  0  0  0  0  0  0  0
   11.4570    2.6950   23.9910 C   0  0  0  0  0  0  0  0  0  0  0  0
   10.9110    3.9040   24.4470 C   0  0  0  0  0  0  0  0  0  0  0  0
   11.4580    5.1180   24.0090 C   0  0  0  0  0  0  0  0  0  0  0  0
   12.5130    5.1800   23.1820 N   0  0  0  0  0  0  0  0  0  0  0  0
   13.0190    4.0210   22.7100 C   0  0  0  0  0  0  0  0  0  0  0  0
   10.6660    0.3320   22.1480 C   0  0  0  0  0  0  0  0  0  0  0  0
  1  2  2  0
  2  3  1  0
  2 10  1  0
  3  4  1  0
  4  5  2  0
  4  9  1  0
  5  6  1  0
  6  7  2  0
  7  8  1  0
  8  9  2  0
 10 11  1  0
 11 23  1  0
 11 12  2  0
 12 13  1  0
 13 14  2  0
 14 15  1  0
 15 16  1  0
 15 23  2  0
 16 17  1  0
 17 18  2  0
 17 22  1  0
 18 19  1  0
 19 20  2  0
 20 21  1  0
 21 22  2  0
M  END
>  <original SMILES>  (1020) 
O=C(Nc1cccnc1)Nc1cccc(Sc2cccnc2)c1

>  <AutoDock Predicted Affinity>  (1020) 
-6.16101

>  <ref_pdb>  (1020) 
x0434_0

>  <ref_mols>  (1020) 
x0434_0

>  <creator>  (1020) 
Will Poole

>  <energy minimised>  (1020) 
True

$$$$
WPC2605_minimised.pdb
     RDKit          3D

 23 25  0  0  0  0  0  0  0  0999 V2000
    8.5860    0.2710   19.9050 O   0  0  0  0  0  0  0  0  0  0  0  0
    7.7790   -0.0270   20.7620 C   0  0  0  0  0  0  0  0  0  0  0  0
    6.4390    0.2020   20.6350 N   0  0  0  0  0  0  0  0  0  0  0  0
    5.8020    0.7800   19.5150 C   0  0  0  0  0  0  0  0  0  0  0  0
    4.8000    1.7360   19.7120 C   0  0  0  0  0  0  0  0  0  0  0  0
    4.2590    2.3500   18.5760 C   0  0  0  0  0  0  0  0  0  0  0  0
    4.7410    2.0070   17.3050 C   0  0  0  0  0  0  0  0  0  0  0  0
    5.6680    1.0430   17.1020 N   0  0  0  0  0  0  0  0  0  0  0  0
    6.1940    0.4590   18.1970 C   0  0  0  0  0  0  0  0  0  0  0  0
    8.0910   -0.6430   21.9400 N   0  0  0  0  0  0  0  0  0  0  0  0
    9.3750   -1.0820   22.3150 C   0  0  0  0  0  0  0  0  0  0  0  0
    9.5370   -2.3820   22.8120 C   0  0  0  0  0  0  0  0  0  0  0  0
   10.8160   -2.8440   23.1530 C   0  0  0  0  0  0  0  0  0  0  0  0
   11.9240   -1.9930   23.0160 C   0  0  0  0  0  0  0  0  0  0  0  0
   11.7600   -0.6660   22.5870 C   0  0  0  0  0  0  0  0  0  0  0  0
   13.1570    0.4560   22.5770 S   0  0  0  0  0  0  0  0  0  0  0  0
   12.4630    1.9630   23.2650 C   0  0  0  0  0  0  0  0  0  0  0  0
   13.0020    3.2080   22.9150 C   0  0  0  0  0  0  0  0  0  0  0  0
   12.4200    4.3850   23.4080 C   0  0  0  0  0  0  0  0  0  0  0  0
   11.3800    4.3790   24.2610 N   0  0  0  0  0  0  0  0  0  0  0  0
   10.8680    3.1860   24.6160 C   0  0  0  0  0  0  0  0  0  0  0  0
   11.3840    1.9640   24.1630 C   0  0  0  0  0  0  0  0  0  0  0  0
   10.4850   -0.2280   22.1970 C   0  0  0  0  0  0  0  0  0  0  0  0
  1  2  2  0
  2  3  1  0
  2 10  1  0
  3  4  1  0
  4  5  2  0
  4  9  1  0
  5  6  1  0
  6  7  2  0
  7  8  1  0
  8  9  2  0
 10 11  1  0
 11 23  1  0
 11 12  2  0
 12 13  1  0
 13 14  2  0
 14 15  1  0
 15 16  1  0
 15 23  2  0
 16 17  1  0
 17 18  2  0
 17 22  1  0
 18 19  1  0
 19 20  2  0
 20 21  1  0
 21 22  2  0
M  END
>  <original SMILES>  (1021) 
O=C(Nc1cccnc1)Nc1cccc(Sc2ccncc2)c1

>  <AutoDock Predicted Affinity>  (1021) 
-6.456575

>  <ref_pdb>  (1021) 
x0434_0

>  <ref_mols>  (1021) 
x0434_0

>  <creator>  (1021) 
Will Poole

>  <energy minimised>  (1021) 
True

$$$$
WPC1894_minimised.pdb
     RDKit          3D

 23 25  0  0  0  0  0  0  0  0999 V2000
    8.9230    0.5640   20.0680 O   0  0  0  0  0  0  0  0  0  0  0  0
    8.2350    0.4600   21.0610 C   0  0  0  0  0  0  0  0  0  0  0  0
    6.8700    0.5330   21.0170 N   0  0  0  0  0  0  0  0  0  0  0  0
    6.1090    0.8620   19.8670 C   0  0  0  0  0  0  0  0  0  0  0  0
    5.0780    1.8000   19.9880 C   0  0  0  0  0  0  0  0  0  0  0  0
    4.4370    2.2170   18.8160 C   0  0  0  0  0  0  0  0  0  0  0  0
    4.8530    1.7060   17.5780 C   0  0  0  0  0  0  0  0  0  0  0  0
    5.7950    0.7440   17.4530 N   0  0  0  0  0  0  0  0  0  0  0  0
    6.4190    0.3500   18.5840 C   0  0  0  0  0  0  0  0  0  0  0  0
    8.7600    0.2460   22.3020 N   0  0  0  0  0  0  0  0  0  0  0  0
   10.1280   -0.0060   22.5390 C   0  0  0  0  0  0  0  0  0  0  0  0
   10.5000   -1.2780   22.9940 C   0  0  0  0  0  0  0  0  0  0  0  0
   11.8550   -1.6080   23.1100 C   0  0  0  0  0  0  0  0  0  0  0  0
   12.8320   -0.6480   22.8020 C   0  0  0  0  0  0  0  0  0  0  0  0
   12.4750    0.6510   22.4090 C   0  0  0  0  0  0  0  0  0  0  0  0
   13.8390    1.7460   22.0030 S   0  0  0  0  0  0  0  0  0  0  0  0
   13.3080    3.2860   22.7000 C   0  0  0  0  0  0  0  0  0  0  0  0
   14.0950    4.2980   22.8530 N   0  0  0  0  0  0  0  0  0  0  0  0
   13.3210    5.2940   23.3560 N   0  0  0  0  0  0  0  0  0  0  0  0
   12.0130    4.8980   23.4930 C   0  0  0  0  0  0  0  0  0  0  0  0
   10.7580    5.7880   24.1370 S   0  0  0  0  0  0  0  0  0  0  0  0
   12.0470    3.5880   23.1220 O   0  0  0  0  0  0  0  0  0  0  0  0
   11.1100    0.9570   22.2320 C   0  0  0  0  0  0  0  0  0  0  0  0
  1  2  2  0
  2 10  1  0
  2  3  1  0
  3  4  1  0
  4  5  2  0
  4  9  1  0
  5  6  1  0
  6  7  2  0
  7  8  1  0
  8  9  2  0
 10 11  1  0
 11 12  2  0
 11 23  1  0
 12 13  1  0
 13 14  2  0
 14 15  1  0
 15 16  1  0
 15 23  2  0
 16 17  1  0
 17 18  2  0
 17 22  1  0
 18 19  1  0
 19 20  1  0
 20 21  2  0
 20 22  1  0
M  END
>  <original SMILES>  (1022) 
O=C(Nc1cccnc1)Nc1cccc(Sc2n[nH]c(=S)o2)c1

>  <AutoDock Predicted Affinity>  (1022) 
-6.624255

>  <ref_pdb>  (1022) 
x0434_0

>  <ref_mols>  (1022) 
x0434_0

>  <creator>  (1022) 
Will Poole

>  <energy minimised>  (1022) 
True

$$$$
WPC2576_minimised.pdb
     RDKit          3D

 24 26  0  0  0  0  0  0  0  0999 V2000
    8.5200    0.0250   19.7920 O   0  0  0  0  0  0  0  0  0  0  0  0
    7.8560   -0.2080   20.7830 C   0  0  0  0  0  0  0  0  0  0  0  0
    6.4940   -0.0730   20.7860 N   0  0  0  0  0  0  0  0  0  0  0  0
    5.7570    0.4830   19.7100 C   0  0  0  0  0  0  0  0  0  0  0  0
    4.8310    1.5010   19.9670 C   0  0  0  0  0  0  0  0  0  0  0  0
    4.2510    2.1440   18.8650 C   0  0  0  0  0  0  0  0  0  0  0  0
    4.6210    1.7680   17.5650 C   0  0  0  0  0  0  0  0  0  0  0  0
    5.4690    0.7470   17.3090 N   0  0  0  0  0  0  0  0  0  0  0  0
    6.0300    0.1320   18.3680 C   0  0  0  0  0  0  0  0  0  0  0  0
    8.4030   -0.5910   21.9770 N   0  0  0  0  0  0  0  0  0  0  0  0
    9.7970   -0.6410   22.1750 C   0  0  0  0  0  0  0  0  0  0  0  0
   10.5590   -1.5820   21.4730 C   0  0  0  0  0  0  0  0  0  0  0  0
   11.9570   -1.4840   21.4540 C   0  0  0  0  0  0  0  0  0  0  0  0
   12.5920   -0.4530   22.1540 C   0  0  0  0  0  0  0  0  0  0  0  0
   11.8340    0.4620   22.8940 C   0  0  0  0  0  0  0  0  0  0  0  0
   12.7390    1.6770   23.8120 S   0  0  0  0  0  0  0  0  0  0  0  0
   11.9330    3.2620   23.6010 C   0  0  0  0  0  0  0  0  0  0  0  0
   10.5910    3.3420   23.7070 N   0  0  0  0  0  0  0  0  0  0  0  0
   10.0070    4.5530   23.6720 C   0  0  0  0  0  0  0  0  0  0  0  0
   10.7450    5.7470   23.6620 C   0  0  0  0  0  0  0  0  0  0  0  0
   12.1480    5.6750   23.6210 C   0  0  0  0  0  0  0  0  0  0  0  0
   12.7500    4.4170   23.5290 C   0  0  0  0  0  0  0  0  0  0  0  0
   14.1140    4.3600   23.4210 O   0  0  0  0  0  0  0  0  0  0  0  0
   10.4330    0.3540   22.9240 C   0  0  0  0  0  0  0  0  0  0  0  0
  1  2  2  0
  2  3  1  0
  2 10  1  0
  3  4  1  0
  4  5  2  0
  4  9  1  0
  5  6  1  0
  6  7  2  0
  7  8  1  0
  8  9  2  0
 10 11  1  0
 11 24  1  0
 11 12  2  0
 12 13  1  0
 13 14  2  0
 14 15  1  0
 15 16  1  0
 15 24  2  0
 16 17  1  0
 17 18  2  0
 17 22  1  0
 18 19  1  0
 19 20  2  0
 20 21  1  0
 21 22  2  0
 22 23  1  0
M  END
>  <original SMILES>  (1023) 
O=C(Nc1cccnc1)Nc1cccc(Sc2ncccc2O)c1

>  <AutoDock Predicted Affinity>  (1023) 
-6.563722

>  <ref_pdb>  (1023) 
x0434_0

>  <ref_mols>  (1023) 
x0434_0

>  <creator>  (1023) 
Will Poole

>  <energy minimised>  (1023) 
True

$$$$
WPC2070_minimised.pdb
     RDKit          3D

 23 25  0  0  0  0  0  0  0  0999 V2000
    8.5330   -0.1230   19.6850 O   0  0  0  0  0  0  0  0  0  0  0  0
    7.7940   -0.4370   20.5960 C   0  0  0  0  0  0  0  0  0  0  0  0
    6.4340   -0.3370   20.5070 N   0  0  0  0  0  0  0  0  0  0  0  0
    5.7610    0.3480   19.4670 C   0  0  0  0  0  0  0  0  0  0  0  0
    4.8420    1.3560   19.7880 C   0  0  0  0  0  0  0  0  0  0  0  0
    4.3080    2.1100   18.7350 C   0  0  0  0  0  0  0  0  0  0  0  0
    4.7190    1.8520   17.4180 C   0  0  0  0  0  0  0  0  0  0  0  0
    5.5780    0.8580   17.1000 N   0  0  0  0  0  0  0  0  0  0  0  0
    6.0900    0.1320   18.1130 C   0  0  0  0  0  0  0  0  0  0  0  0
    8.2220   -0.8420   21.8290 N   0  0  0  0  0  0  0  0  0  0  0  0
    9.5070   -0.5300   22.3130 C   0  0  0  0  0  0  0  0  0  0  0  0
   10.6600   -1.1030   21.7580 C   0  0  0  0  0  0  0  0  0  0  0  0
   11.9300   -0.6210   22.1180 C   0  0  0  0  0  0  0  0  0  0  0  0
   12.0400    0.4400   23.0340 C   0  0  0  0  0  0  0  0  0  0  0  0
   10.8810    0.9910   23.6050 C   0  0  0  0  0  0  0  0  0  0  0  0
   10.9920    2.3200   24.7760 S   0  0  0  0  0  0  0  0  0  0  0  0
   10.2000    3.6880   23.9620 C   0  0  0  0  0  0  0  0  0  0  0  0
   10.7400    4.8880   24.2100 N   0  0  0  0  0  0  0  0  0  0  0  0
   10.1740    5.9340   23.6090 C   0  0  0  0  0  0  0  0  0  0  0  0
    9.0550    5.7980   22.7980 C   0  0  0  0  0  0  0  0  0  0  0  0
    8.5460    4.5160   22.6180 C   0  0  0  0  0  0  0  0  0  0  0  0
    9.0970    3.4620   23.2300 N   0  0  0  0  0  0  0  0  0  0  0  0
    9.6220    0.4890   23.2610 C   0  0  0  0  0  0  0  0  0  0  0  0
  1  2  2  0
  2  3  1  0
  2 10  1  0
  3  4  1  0
  4  5  2  0
  4  9  1  0
  5  6  1  0
  6  7  2  0
  7  8  1  0
  8  9  2  0
 10 11  1  0
 11 23  1  0
 11 12  2  0
 12 13  1  0
 13 14  2  0
 14 15  1  0
 15 16  1  0
 15 23  2  0
 16 17  1  0
 17 18  2  0
 17 22  1  0
 18 19  1  0
 19 20  2  0
 20 21  1  0
 21 22  2  0
M  END
>  <original SMILES>  (1024) 
O=C(Nc1cccnc1)Nc1cccc(Sc2ncccn2)c1

>  <AutoDock Predicted Affinity>  (1024) 
-5.576895

>  <ref_pdb>  (1024) 
x0434_0

>  <ref_mols>  (1024) 
x0434_0

>  <creator>  (1024) 
Will Poole

>  <energy minimised>  (1024) 
True

$$$$
WPC1222_minimised.pdb
     RDKit          3D

 22 23  0  0  0  0  0  0  0  0999 V2000
   12.7230    7.3060   24.8080 O   0  0  0  0  0  0  0  0  0  0  0  0
   12.2500    6.2360   24.4930 C   0  0  0  0  0  0  0  0  0  0  0  0
   10.9830    5.9340   24.7940 O   0  0  0  0  0  0  0  0  0  0  0  0
   12.9190    5.3060   23.5470 C   0  0  0  0  0  0  0  0  0  0  0  0
   12.5620    4.0310   23.2570 C   0  0  0  0  0  0  0  0  0  0  0  0
   11.2910    3.1340   24.0390 S   0  0  0  0  0  0  0  0  0  0  0  0
   11.2270    1.5480   23.2400 C   0  0  0  0  0  0  0  0  0  0  0  0
   12.3780    0.8020   22.9330 C   0  0  0  0  0  0  0  0  0  0  0  0
   12.2530   -0.4330   22.2700 C   0  0  0  0  0  0  0  0  0  0  0  0
   10.9790   -0.9320   21.9440 C   0  0  0  0  0  0  0  0  0  0  0  0
    9.8340   -0.1920   22.2770 C   0  0  0  0  0  0  0  0  0  0  0  0
    8.5460   -0.6100   21.8930 N   0  0  0  0  0  0  0  0  0  0  0  0
    8.0130   -0.3020   20.6750 C   0  0  0  0  0  0  0  0  0  0  0  0
    8.6800    0.0590   19.7280 O   0  0  0  0  0  0  0  0  0  0  0  0
    6.6460   -0.3440   20.6320 N   0  0  0  0  0  0  0  0  0  0  0  0
    5.8940    0.2590   19.5950 C   0  0  0  0  0  0  0  0  0  0  0  0
    4.9640    1.2570   19.9130 C   0  0  0  0  0  0  0  0  0  0  0  0
    4.3760    1.9610   18.8530 C   0  0  0  0  0  0  0  0  0  0  0  0
    4.7440    1.6640   17.5330 C   0  0  0  0  0  0  0  0  0  0  0  0
    5.6080    0.6730   17.2180 N   0  0  0  0  0  0  0  0  0  0  0  0
    6.1760   -0.0020   18.2370 C   0  0  0  0  0  0  0  0  0  0  0  0
    9.9620    1.0440   22.9190 C   0  0  0  0  0  0  0  0  0  0  0  0
  1  2  2  0
  2  3  1  0
  2  4  1  0
  4  5  2  0
  5  6  1  0
  6  7  1  0
  7 22  2  0
  7  8  1  0
  8  9  2  0
  9 10  1  0
 10 11  2  0
 11 12  1  0
 11 22  1  0
 12 13  1  0
 13 14  2  0
 13 15  1  0
 15 16  1  0
 16 17  2  0
 16 21  1  0
 17 18  1  0
 18 19  2  0
 19 20  1  0
 20 21  2  0
M  END
>  <original SMILES>  (1025) 
O=C(O)C=CSc1cccc(NC(=O)Nc2cccnc2)c1

>  <AutoDock Predicted Affinity>  (1025) 
-5.255299

>  <ref_pdb>  (1025) 
x0434_0

>  <ref_mols>  (1025) 
x0434_0

>  <creator>  (1025) 
Will Poole

>  <energy minimised>  (1025) 
True

$$$$
WPC2235_minimised.pdb
     RDKit          3D

 23 24  0  0  0  0  0  0  0  0999 V2000
   10.4640    5.5860   24.6870 O   0  0  0  0  0  0  0  0  0  0  0  0
   10.5400    5.3130   23.5010 C   0  0  0  0  0  0  0  0  0  0  0  0
    9.8190    6.0370   22.6170 O   0  0  0  0  0  0  0  0  0  0  0  0
   11.4700    4.2920   22.9000 C   0  0  0  0  0  0  0  0  0  0  0  0
   12.0000    3.3660   23.6320 N   0  0  0  0  0  0  0  0  0  0  0  0
   11.0930    2.7360   24.4990 O   0  0  0  0  0  0  0  0  0  0  0  0
   11.5170    1.3990   24.7990 C   0  0  0  0  0  0  0  0  0  0  0  0
   11.1370    0.4750   23.6630 C   0  0  0  0  0  0  0  0  0  0  0  0
   12.1210   -0.1580   22.8830 C   0  0  0  0  0  0  0  0  0  0  0  0
   11.7460   -1.0650   21.8820 C   0  0  0  0  0  0  0  0  0  0  0  0
   10.3850   -1.2910   21.6280 C   0  0  0  0  0  0  0  0  0  0  0  0
    9.4050   -0.5930   22.3470 C   0  0  0  0  0  0  0  0  0  0  0  0
    8.0580   -0.6420   21.9450 N   0  0  0  0  0  0  0  0  0  0  0  0
    7.6390   -0.2250   20.7130 C   0  0  0  0  0  0  0  0  0  0  0  0
    8.3900    0.0510   19.7970 O   0  0  0  0  0  0  0  0  0  0  0  0
    6.2830   -0.1040   20.6130 N   0  0  0  0  0  0  0  0  0  0  0  0
    5.6190    0.5020   19.5220 C   0  0  0  0  0  0  0  0  0  0  0  0
    4.6700    1.5000   19.7700 C   0  0  0  0  0  0  0  0  0  0  0  0
    4.1400    2.1800   18.6660 C   0  0  0  0  0  0  0  0  0  0  0  0
    4.5820    1.8560   17.3750 C   0  0  0  0  0  0  0  0  0  0  0  0
    5.4650    0.8630   17.1250 N   0  0  0  0  0  0  0  0  0  0  0  0
    5.9770    0.2130   18.1870 C   0  0  0  0  0  0  0  0  0  0  0  0
    9.7780    0.2650   23.3830 C   0  0  0  0  0  0  0  0  0  0  0  0
  1  2  2  0
  2  3  1  0
  2  4  1  0
  4  5  2  0
  5  6  1  0
  6  7  1  0
  7  8  1  0
  8 23  2  0
  8  9  1  0
  9 10  2  0
 10 11  1  0
 11 12  2  0
 12 13  1  0
 12 23  1  0
 13 14  1  0
 14 15  2  0
 14 16  1  0
 16 17  1  0
 17 18  2  0
 17 22  1  0
 18 19  1  0
 19 20  2  0
 20 21  1  0
 21 22  2  0
M  END
>  <original SMILES>  (1026) 
O=C(O)C=NOCc1cccc(NC(=O)Nc2cccnc2)c1

>  <AutoDock Predicted Affinity>  (1026) 
-5.320835

>  <ref_pdb>  (1026) 
x0434_0

>  <ref_mols>  (1026) 
x0434_0

>  <creator>  (1026) 
Will Poole

>  <energy minimised>  (1026) 
True

$$$$
WPC2548_minimised.pdb
     RDKit          3D

 24 25  0  0  0  0  0  0  0  0999 V2000
    5.9880    6.0070   27.2210 O   0  0  0  0  0  0  0  0  0  0  0  0
    8.1270    5.0810   24.6680 C   0  0  0  0  0  0  0  0  0  0  0  0
    8.3670    5.6750   23.4160 O   0  0  0  0  0  0  0  0  0  0  0  0
    9.6680    4.5940   24.6850 C   0  0  0  0  0  0  0  0  0  0  0  0
    9.9860    3.3980   23.7420 C   0  0  0  0  0  0  0  0  0  0  0  0
   11.4360    2.9310   23.9050 C   0  0  0  0  0  0  0  0  0  0  0  0
   12.3540    3.7070   23.7210 O   0  0  0  0  0  0  0  0  0  0  0  0
   11.6770    1.5110   24.4120 C   0  0  0  0  0  0  0  0  0  0  0  0
   11.3310    0.4370   23.4090 C   0  0  0  0  0  0  0  0  0  0  0  0
   12.3380   -0.1470   22.6200 C   0  0  0  0  0  0  0  0  0  0  0  0
   12.0180   -1.1830   21.7300 C   0  0  0  0  0  0  0  0  0  0  0  0
   10.6790   -1.5770   21.5830 C   0  0  0  0  0  0  0  0  0  0  0  0
    9.6710   -0.9450   22.3150 C   0  0  0  0  0  0  0  0  0  0  0  0
    8.3210   -1.1070   21.9570 N   0  0  0  0  0  0  0  0  0  0  0  0
    7.8260   -0.5920   20.7890 C   0  0  0  0  0  0  0  0  0  0  0  0
    8.5330   -0.1660   19.8950 O   0  0  0  0  0  0  0  0  0  0  0  0
    6.4620   -0.5380   20.7220 N   0  0  0  0  0  0  0  0  0  0  0  0
    5.7620    0.1320   19.6880 C   0  0  0  0  0  0  0  0  0  0  0  0
    4.8410    1.1360   20.0150 C   0  0  0  0  0  0  0  0  0  0  0  0
    4.2890    1.8800   18.9620 C   0  0  0  0  0  0  0  0  0  0  0  0
    4.6760    1.6100   17.6400 C   0  0  0  0  0  0  0  0  0  0  0  0
    5.5360    0.6180   17.3160 N   0  0  0  0  0  0  0  0  0  0  0  0
    6.0750   -0.0890   18.3290 C   0  0  0  0  0  0  0  0  0  0  0  0
   10.0010    0.0150   23.2700 C   0  0  0  0  0  0  0  0  0  0  0  0
  1  2  2  0
  2  3  1  0
  2  4  1  0
  4  5  1  0
  5  6  1  0
  6  7  2  0
  6  8  1  0
  8  9  1  0
  9 24  2  0
  9 10  1  0
 10 11  2  0
 11 12  1  0
 12 13  2  0
 13 14  1  0
 13 24  1  0
 14 15  1  0
 15 16  2  0
 15 17  1  0
 17 18  1  0
 18 19  2  0
 18 23  1  0
 19 20  1  0
 20 21  2  0
 21 22  1  0
 22 23  2  0
M  END
>  <original SMILES>  (1027) 
O=C(O)CCC(=O)Cc1cccc(NC(=O)Nc2cccnc2)c1

>  <AutoDock Predicted Affinity>  (1027) 
-5.66498

>  <ref_pdb>  (1027) 
x0434_0

>  <ref_mols>  (1027) 
x0434_0

>  <creator>  (1027) 
Will Poole

>  <energy minimised>  (1027) 
True

$$$$
WPC1217_minimised.pdb
     RDKit          3D

 23 24  0  0  0  0  0  0  0  0999 V2000
   10.6400    6.1960   24.3450 O   0  0  0  0  0  0  0  0  0  0  0  0
   11.8270    6.0670   24.1300 C   0  0  0  0  0  0  0  0  0  0  0  0
   12.7310    6.8160   24.7820 O   0  0  0  0  0  0  0  0  0  0  0  0
   12.3710    5.2230   22.9820 C   0  0  0  0  0  0  0  0  0  0  0  0
   12.5440    3.7220   23.3040 C   0  0  0  0  0  0  0  0  0  0  0  0
   11.4350    3.1380   24.2140 C   0  0  0  0  0  0  0  0  0  0  0  0
   11.6750    1.6590   24.5790 C   0  0  0  0  0  0  0  0  0  0  0  0
   11.3120    0.6880   23.4810 C   0  0  0  0  0  0  0  0  0  0  0  0
   12.3070    0.0010   22.7650 C   0  0  0  0  0  0  0  0  0  0  0  0
   11.9440   -0.9790   21.8280 C   0  0  0  0  0  0  0  0  0  0  0  0
   10.5860   -1.2390   21.5870 C   0  0  0  0  0  0  0  0  0  0  0  0
    9.5970   -0.5010   22.2490 C   0  0  0  0  0  0  0  0  0  0  0  0
    8.2450   -0.6200   21.8760 N   0  0  0  0  0  0  0  0  0  0  0  0
    7.7820   -0.2710   20.6390 C   0  0  0  0  0  0  0  0  0  0  0  0
    8.4980   -0.0240   19.6890 O   0  0  0  0  0  0  0  0  0  0  0  0
    6.4210   -0.1600   20.5800 N   0  0  0  0  0  0  0  0  0  0  0  0
    5.7250    0.4530   19.5120 C   0  0  0  0  0  0  0  0  0  0  0  0
    4.7940    1.4600   19.7900 C   0  0  0  0  0  0  0  0  0  0  0  0
    4.2440    2.1550   18.7050 C   0  0  0  0  0  0  0  0  0  0  0  0
    4.6550    1.8420   17.4010 C   0  0  0  0  0  0  0  0  0  0  0  0
    5.5190    0.8400   17.1230 N   0  0  0  0  0  0  0  0  0  0  0  0
    6.0460    0.1710   18.1660 C   0  0  0  0  0  0  0  0  0  0  0  0
    9.9580    0.4440   23.2120 C   0  0  0  0  0  0  0  0  0  0  0  0
  1  2  2  0
  2  3  1  0
  2  4  1  0
  4  5  1  0
  5  6  1  0
  6  7  1  0
  7  8  1  0
  8 23  2  0
  8  9  1  0
  9 10  2  0
 10 11  1  0
 11 12  2  0
 12 13  1  0
 12 23  1  0
 13 14  1  0
 14 15  2  0
 14 16  1  0
 16 17  1  0
 17 18  2  0
 17 22  1  0
 18 19  1  0
 19 20  2  0
 20 21  1  0
 21 22  2  0
M  END
>  <original SMILES>  (1028) 
O=C(O)CCCCc1cccc(NC(=O)Nc2cccnc2)c1

>  <AutoDock Predicted Affinity>  (1028) 
-5.362275

>  <ref_pdb>  (1028) 
x0434_0

>  <ref_mols>  (1028) 
x0434_0

>  <creator>  (1028) 
Will Poole

>  <energy minimised>  (1028) 
True

$$$$
WPC1136_minimised.pdb
     RDKit          3D

 23 24  0  0  0  0  0  0  0  0999 V2000
   11.6920    6.5580   24.7940 O   0  0  0  0  0  0  0  0  0  0  0  0
   12.0320    5.7170   23.9900 C   0  0  0  0  0  0  0  0  0  0  0  0
   13.2470    5.1490   24.0190 O   0  0  0  0  0  0  0  0  0  0  0  0
   11.0980    5.1090   22.9570 C   0  0  0  0  0  0  0  0  0  0  0  0
   10.0710    4.1140   23.5470 C   0  0  0  0  0  0  0  0  0  0  0  0
   10.7060    3.0760   24.4980 C   0  0  0  0  0  0  0  0  0  0  0  0
   12.1210    2.1850   23.7170 S   0  0  0  0  0  0  0  0  0  0  0  0
   11.4660    0.7300   22.9400 C   0  0  0  0  0  0  0  0  0  0  0  0
   12.3660   -0.2630   22.5300 C   0  0  0  0  0  0  0  0  0  0  0  0
   11.8900   -1.4540   21.9630 C   0  0  0  0  0  0  0  0  0  0  0  0
   10.5110   -1.6340   21.7690 C   0  0  0  0  0  0  0  0  0  0  0  0
    9.6180   -0.6210   22.1390 C   0  0  0  0  0  0  0  0  0  0  0  0
    8.2540   -0.7110   21.8170 N   0  0  0  0  0  0  0  0  0  0  0  0
    7.7530   -0.2590   20.6320 C   0  0  0  0  0  0  0  0  0  0  0  0
    8.4480    0.0850   19.6970 O   0  0  0  0  0  0  0  0  0  0  0  0
    6.3900   -0.1710   20.5970 N   0  0  0  0  0  0  0  0  0  0  0  0
    5.6790    0.4560   19.5470 C   0  0  0  0  0  0  0  0  0  0  0  0
    4.7630    1.4730   19.8420 C   0  0  0  0  0  0  0  0  0  0  0  0
    4.2070    2.1770   18.7660 C   0  0  0  0  0  0  0  0  0  0  0  0
    4.5930    1.8610   17.4540 C   0  0  0  0  0  0  0  0  0  0  0  0
    5.4450    0.8520   17.1630 N   0  0  0  0  0  0  0  0  0  0  0  0
    5.9800    0.1770   18.1970 C   0  0  0  0  0  0  0  0  0  0  0  0
   10.0910    0.5540   22.7290 C   0  0  0  0  0  0  0  0  0  0  0  0
  1  2  2  0
  2  3  1  0
  2  4  1  0
  4  5  1  0
  5  6  1  0
  6  7  1  0
  7  8  1  0
  8 23  2  0
  8  9  1  0
  9 10  2  0
 10 11  1  0
 11 12  2  0
 12 13  1  0
 12 23  1  0
 13 14  1  0
 14 15  2  0
 14 16  1  0
 16 17  1  0
 17 18  2  0
 17 22  1  0
 18 19  1  0
 19 20  2  0
 20 21  1  0
 21 22  2  0
M  END
>  <original SMILES>  (1029) 
O=C(O)CCCSc1cccc(NC(=O)Nc2cccnc2)c1

>  <AutoDock Predicted Affinity>  (1029) 
-5.030769

>  <ref_pdb>  (1029) 
x0434_0

>  <ref_mols>  (1029) 
x0434_0

>  <creator>  (1029) 
Will Poole

>  <energy minimised>  (1029) 
True

$$$$
WPC2176_minimised.pdb
     RDKit          3D

 22 23  0  0  0  0  0  0  0  0999 V2000
   11.9270    5.8840   23.8210 O   0  0  0  0  0  0  0  0  0  0  0  0
   12.3090    5.0540   23.0180 C   0  0  0  0  0  0  0  0  0  0  0  0
   13.1540    5.3680   22.0220 O   0  0  0  0  0  0  0  0  0  0  0  0
   12.1470    3.5500   23.1890 C   0  0  0  0  0  0  0  0  0  0  0  0
   11.1860    3.1310   24.3230 C   0  0  0  0  0  0  0  0  0  0  0  0
   11.3670    1.6460   24.7050 C   0  0  0  0  0  0  0  0  0  0  0  0
   11.0360    0.6780   23.5920 C   0  0  0  0  0  0  0  0  0  0  0  0
   12.0580    0.0120   22.8910 C   0  0  0  0  0  0  0  0  0  0  0  0
   11.7340   -0.9480   21.9190 C   0  0  0  0  0  0  0  0  0  0  0  0
   10.3870   -1.2060   21.6250 C   0  0  0  0  0  0  0  0  0  0  0  0
    9.3730   -0.4930   22.2760 C   0  0  0  0  0  0  0  0  0  0  0  0
    8.0360   -0.6000   21.8560 N   0  0  0  0  0  0  0  0  0  0  0  0
    7.6290   -0.2690   20.5960 C   0  0  0  0  0  0  0  0  0  0  0  0
    8.3880   -0.0870   19.6620 O   0  0  0  0  0  0  0  0  0  0  0  0
    6.2770   -0.1000   20.5000 N   0  0  0  0  0  0  0  0  0  0  0  0
    5.6270    0.5270   19.4140 C   0  0  0  0  0  0  0  0  0  0  0  0
    4.6830    1.5280   19.6720 C   0  0  0  0  0  0  0  0  0  0  0  0
    4.1710    2.2370   18.5780 C   0  0  0  0  0  0  0  0  0  0  0  0
    4.6320    1.9450   17.2860 C   0  0  0  0  0  0  0  0  0  0  0  0
    5.5060    0.9470   17.0250 N   0  0  0  0  0  0  0  0  0  0  0  0
    5.9930    0.2620   18.0770 C   0  0  0  0  0  0  0  0  0  0  0  0
    9.6940    0.4300   23.2750 C   0  0  0  0  0  0  0  0  0  0  0  0
  1  2  2  0
  2  3  1  0
  2  4  1  0
  4  5  1  0
  5  6  1  0
  6  7  1  0
  7 22  2  0
  7  8  1  0
  8  9  2  0
  9 10  1  0
 10 11  2  0
 11 12  1  0
 11 22  1  0
 12 13  1  0
 13 14  2  0
 13 15  1  0
 15 16  1  0
 16 17  2  0
 16 21  1  0
 17 18  1  0
 18 19  2  0
 19 20  1  0
 20 21  2  0
M  END
>  <original SMILES>  (1030) 
O=C(O)CCCc1cccc(NC(=O)Nc2cccnc2)c1

>  <AutoDock Predicted Affinity>  (1030) 
-5.71611

>  <ref_pdb>  (1030) 
x0434_0

>  <ref_mols>  (1030) 
x0434_0

>  <creator>  (1030) 
Will Poole

>  <energy minimised>  (1030) 
True

$$$$
WPC1346_minimised.pdb
     RDKit          3D

 22 23  0  0  0  0  0  0  0  0999 V2000
   10.1630    6.3010   24.0200 O   0  0  0  0  0  0  0  0  0  0  0  0
   10.2580    5.4320   23.1780 C   0  0  0  0  0  0  0  0  0  0  0  0
   11.2930    5.4200   22.3340 O   0  0  0  0  0  0  0  0  0  0  0  0
    9.5790    4.0810   23.3340 C   0  0  0  0  0  0  0  0  0  0  0  0
   10.3310    3.2140   24.3700 C   0  0  0  0  0  0  0  0  0  0  0  0
   11.8890    2.5280   23.6560 S   0  0  0  0  0  0  0  0  0  0  0  0
   11.4590    0.9420   22.9650 C   0  0  0  0  0  0  0  0  0  0  0  0
   12.4730    0.0070   22.7090 C   0  0  0  0  0  0  0  0  0  0  0  0
   12.1490   -1.2700   22.2160 C   0  0  0  0  0  0  0  0  0  0  0  0
   10.8090   -1.6020   21.9590 C   0  0  0  0  0  0  0  0  0  0  0  0
    9.8040   -0.6510   22.1730 C   0  0  0  0  0  0  0  0  0  0  0  0
    8.4690   -0.8990   21.8100 N   0  0  0  0  0  0  0  0  0  0  0  0
    7.9130   -0.3720   20.6800 C   0  0  0  0  0  0  0  0  0  0  0  0
    8.5640    0.1600   19.8030 O   0  0  0  0  0  0  0  0  0  0  0  0
    6.5470   -0.4320   20.6300 N   0  0  0  0  0  0  0  0  0  0  0  0
    5.7950    0.2170   19.6210 C   0  0  0  0  0  0  0  0  0  0  0  0
    4.8770    1.2170   19.9660 C   0  0  0  0  0  0  0  0  0  0  0  0
    4.3030    1.9610   18.9250 C   0  0  0  0  0  0  0  0  0  0  0  0
    4.6660    1.6920   17.5960 C   0  0  0  0  0  0  0  0  0  0  0  0
    5.5220    0.7030   17.2550 N   0  0  0  0  0  0  0  0  0  0  0  0
    6.0810   -0.0050   18.2570 C   0  0  0  0  0  0  0  0  0  0  0  0
   10.1280    0.6120   22.6740 C   0  0  0  0  0  0  0  0  0  0  0  0
  1  2  2  0
  2  3  1  0
  2  4  1  0
  4  5  1  0
  5  6  1  0
  6  7  1  0
  7 22  2  0
  7  8  1  0
  8  9  2  0
  9 10  1  0
 10 11  2  0
 11 12  1  0
 11 22  1  0
 12 13  1  0
 13 14  2  0
 13 15  1  0
 15 16  1  0
 16 17  2  0
 16 21  1  0
 17 18  1  0
 18 19  2  0
 19 20  1  0
 20 21  2  0
M  END
>  <original SMILES>  (1031) 
O=C(O)CCSc1cccc(NC(=O)Nc2cccnc2)c1

>  <AutoDock Predicted Affinity>  (1031) 
-5.311555

>  <ref_pdb>  (1031) 
x0434_0

>  <ref_mols>  (1031) 
x0434_0

>  <creator>  (1031) 
Will Poole

>  <energy minimised>  (1031) 
True

$$$$
WPC1677_minimised.pdb
     RDKit          3D

 21 22  0  0  0  0  0  0  0  0999 V2000
   13.0800    4.9140   23.9120 O   0  0  0  0  0  0  0  0  0  0  0  0
   12.1700    4.7160   23.1310 C   0  0  0  0  0  0  0  0  0  0  0  0
   12.2880    5.0180   21.8310 O   0  0  0  0  0  0  0  0  0  0  0  0
   10.7740    4.3090   23.5900 C   0  0  0  0  0  0  0  0  0  0  0  0
   10.8060    3.0080   24.4180 C   0  0  0  0  0  0  0  0  0  0  0  0
   10.8980    1.7560   23.5680 C   0  0  0  0  0  0  0  0  0  0  0  0
   12.1370    1.2250   23.1660 C   0  0  0  0  0  0  0  0  0  0  0  0
   12.1800    0.0660   22.3710 C   0  0  0  0  0  0  0  0  0  0  0  0
   10.9860   -0.5650   21.9790 C   0  0  0  0  0  0  0  0  0  0  0  0
    9.7530   -0.0370   22.3910 C   0  0  0  0  0  0  0  0  0  0  0  0
    8.5290   -0.5680   21.9420 N   0  0  0  0  0  0  0  0  0  0  0  0
    8.0040   -0.2570   20.7210 C   0  0  0  0  0  0  0  0  0  0  0  0
    8.6610    0.1830   19.8010 O   0  0  0  0  0  0  0  0  0  0  0  0
    6.6430   -0.3840   20.6460 N   0  0  0  0  0  0  0  0  0  0  0  0
    5.8850    0.2180   19.6130 C   0  0  0  0  0  0  0  0  0  0  0  0
    4.9550    1.2140   19.9360 C   0  0  0  0  0  0  0  0  0  0  0  0
    4.3720    1.9280   18.8800 C   0  0  0  0  0  0  0  0  0  0  0  0
    4.7410    1.6360   17.5590 C   0  0  0  0  0  0  0  0  0  0  0  0
    5.6090    0.6500   17.2390 N   0  0  0  0  0  0  0  0  0  0  0  0
    6.1770   -0.0300   18.2560 C   0  0  0  0  0  0  0  0  0  0  0  0
    9.7130    1.1170   23.1800 C   0  0  0  0  0  0  0  0  0  0  0  0
  1  2  2  0
  2  3  1  0
  2  4  1  0
  4  5  1  0
  5  6  1  0
  6 21  2  0
  6  7  1  0
  7  8  2  0
  8  9  1  0
  9 10  2  0
 10 11  1  0
 10 21  1  0
 11 12  1  0
 12 13  2  0
 12 14  1  0
 14 15  1  0
 15 16  2  0
 15 20  1  0
 16 17  1  0
 17 18  2  0
 18 19  1  0
 19 20  2  0
M  END
>  <original SMILES>  (1032) 
O=C(O)CCc1cccc(NC(=O)Nc2cccnc2)c1

>  <AutoDock Predicted Affinity>  (1032) 
-6.139397

>  <ref_pdb>  (1032) 
x0434_0

>  <ref_mols>  (1032) 
x0434_0

>  <creator>  (1032) 
Will Poole

>  <energy minimised>  (1032) 
True

$$$$
WPC2478_minimised.pdb
     RDKit          3D

 24 25  0  0  0  0  0  0  0  0999 V2000
    7.3310    2.7930   23.2530 O   0  0  0  0  0  0  0  0  0  0  0  0
    8.2300    3.3320   22.6350 C   0  0  0  0  0  0  0  0  0  0  0  0
    8.6390    2.8010   21.4730 O   0  0  0  0  0  0  0  0  0  0  0  0
    9.2940    4.1970   23.3340 C   0  0  0  0  0  0  0  0  0  0  0  0
   10.0980    3.3750   24.2660 N   0  0  0  0  0  0  0  0  0  0  0  0
   11.4030    3.0400   23.9980 C   0  0  0  0  0  0  0  0  0  0  0  0
   12.1660    3.8250   23.4740 O   0  0  0  0  0  0  0  0  0  0  0  0
   11.7870    1.6100   24.3580 C   0  0  0  0  0  0  0  0  0  0  0  0
   11.3410    0.5790   23.3440 C   0  0  0  0  0  0  0  0  0  0  0  0
   12.2850   -0.1450   22.5970 C   0  0  0  0  0  0  0  0  0  0  0  0
   11.8580   -1.1530   21.7180 C   0  0  0  0  0  0  0  0  0  0  0  0
   10.4850   -1.3890   21.5460 C   0  0  0  0  0  0  0  0  0  0  0  0
    9.5450   -0.6130   22.2330 C   0  0  0  0  0  0  0  0  0  0  0  0
    8.1810   -0.6490   21.8880 N   0  0  0  0  0  0  0  0  0  0  0  0
    7.7280   -0.3130   20.6430 C   0  0  0  0  0  0  0  0  0  0  0  0
    8.4270   -0.2660   19.6490 O   0  0  0  0  0  0  0  0  0  0  0  0
    6.3990    0.0050   20.6210 N   0  0  0  0  0  0  0  0  0  0  0  0
    5.7210    0.6140   19.5370 C   0  0  0  0  0  0  0  0  0  0  0  0
    4.8190    1.6530   19.7970 C   0  0  0  0  0  0  0  0  0  0  0  0
    4.2470    2.3080   18.6990 C   0  0  0  0  0  0  0  0  0  0  0  0
    4.6140    1.9330   17.3980 C   0  0  0  0  0  0  0  0  0  0  0  0
    5.4540    0.9070   17.1390 N   0  0  0  0  0  0  0  0  0  0  0  0
    5.9940    0.2690   18.1950 C   0  0  0  0  0  0  0  0  0  0  0  0
    9.9720    0.3280   23.1700 C   0  0  0  0  0  0  0  0  0  0  0  0
  1  2  2  0
  2  3  1  0
  2  4  1  0
  4  5  1  0
  5  6  1  0
  6  7  2  0
  6  8  1  0
  8  9  1  0
  9 24  2  0
  9 10  1  0
 10 11  2  0
 11 12  1  0
 12 13  2  0
 13 14  1  0
 13 24  1  0
 14 15  1  0
 15 16  2  0
 15 17  1  0
 17 18  1  0
 18 19  2  0
 18 23  1  0
 19 20  1  0
 20 21  2  0
 21 22  1  0
 22 23  2  0
M  END
>  <original SMILES>  (1033) 
O=C(O)CNC(=O)Cc1cccc(NC(=O)Nc2cccnc2)c1

>  <AutoDock Predicted Affinity>  (1033) 
-5.91419

>  <ref_pdb>  (1033) 
x0434_0

>  <ref_mols>  (1033) 
x0434_0

>  <creator>  (1033) 
Will Poole

>  <energy minimised>  (1033) 
True

$$$$
WPC2204_minimised.pdb
     RDKit          3D

 24 25  0  0  0  0  0  0  0  0999 V2000
   12.6190    6.6900   24.8090 O   0  0  0  0  0  0  0  0  0  0  0  0
   11.9030    6.0140   24.1010 C   0  0  0  0  0  0  0  0  0  0  0  0
   10.5930    6.2940   23.9890 O   0  0  0  0  0  0  0  0  0  0  0  0
   12.4520    5.1040   22.9900 C   0  0  0  0  0  0  0  0  0  0  0  0
   12.5070    3.6700   23.3510 N   0  0  0  0  0  0  0  0  0  0  0  0
   11.4060    2.9140   23.6980 C   0  0  0  0  0  0  0  0  0  0  0  0
    9.8470    3.5100   23.6780 S   0  0  0  0  0  0  0  0  0  0  0  0
   11.7250    1.5370   24.2640 C   0  0  0  0  0  0  0  0  0  0  0  0
   11.3270    0.4350   23.3120 C   0  0  0  0  0  0  0  0  0  0  0  0
   12.2930   -0.2980   22.6030 C   0  0  0  0  0  0  0  0  0  0  0  0
   11.8910   -1.3400   21.7540 C   0  0  0  0  0  0  0  0  0  0  0  0
   10.5240   -1.6070   21.5770 C   0  0  0  0  0  0  0  0  0  0  0  0
    9.5630   -0.8270   22.2290 C   0  0  0  0  0  0  0  0  0  0  0  0
    8.2050   -0.9060   21.8750 N   0  0  0  0  0  0  0  0  0  0  0  0
    7.7540   -0.5250   20.6420 C   0  0  0  0  0  0  0  0  0  0  0  0
    8.4750   -0.3610   19.6780 O   0  0  0  0  0  0  0  0  0  0  0  0
    6.4080   -0.2870   20.6030 N   0  0  0  0  0  0  0  0  0  0  0  0
    5.7410    0.3720   19.5420 C   0  0  0  0  0  0  0  0  0  0  0  0
    4.8380    1.3990   19.8390 C   0  0  0  0  0  0  0  0  0  0  0  0
    4.2950    2.1200   18.7670 C   0  0  0  0  0  0  0  0  0  0  0  0
    4.6860    1.8130   17.4560 C   0  0  0  0  0  0  0  0  0  0  0  0
    5.5260    0.7960   17.1590 N   0  0  0  0  0  0  0  0  0  0  0  0
    6.0440    0.1000   18.1900 C   0  0  0  0  0  0  0  0  0  0  0  0
    9.9640    0.1650   23.1240 C   0  0  0  0  0  0  0  0  0  0  0  0
  1  2  2  0
  2  3  1  0
  2  4  1  0
  4  5  1  0
  5  6  1  0
  6  7  2  0
  6  8  1  0
  8  9  1  0
  9 24  2  0
  9 10  1  0
 10 11  2  0
 11 12  1  0
 12 13  2  0
 13 14  1  0
 13 24  1  0
 14 15  1  0
 15 16  2  0
 15 17  1  0
 17 18  1  0
 18 19  2  0
 18 23  1  0
 19 20  1  0
 20 21  2  0
 21 22  1  0
 22 23  2  0
M  END
>  <original SMILES>  (1034) 
O=C(O)CNC(=S)Cc1cccc(NC(=O)Nc2cccnc2)c1

>  <AutoDock Predicted Affinity>  (1034) 
-5.163148

>  <ref_pdb>  (1034) 
x0434_0

>  <ref_mols>  (1034) 
x0434_0

>  <creator>  (1034) 
Will Poole

>  <energy minimised>  (1034) 
True

$$$$
WPC1967_minimised.pdb
     RDKit          3D

 24 25  0  0  0  0  0  0  0  0999 V2000
    7.6100    3.2310   23.3770 O   0  0  0  0  0  0  0  0  0  0  0  0
    8.1690    4.0500   22.6760 C   0  0  0  0  0  0  0  0  0  0  0  0
    7.6040    4.3350   21.5000 O   0  0  0  0  0  0  0  0  0  0  0  0
    9.0350    5.2090   23.2490 C   0  0  0  0  0  0  0  0  0  0  0  0
   10.3030    5.5910   22.5620 N   0  0  0  0  0  0  0  0  0  0  0  0
   11.3790    4.5830   22.5250 C   0  0  0  0  0  0  0  0  0  0  0  0
   12.0300    4.3390   23.8940 C   0  0  0  0  0  0  0  0  0  0  0  0
   11.1250    3.0640   24.8680 S   0  0  0  0  0  0  0  0  0  0  0  0
   11.1690    1.6260   23.8280 C   0  0  0  0  0  0  0  0  0  0  0  0
   12.3560    1.1640   23.2340 C   0  0  0  0  0  0  0  0  0  0  0  0
   12.3060    0.1150   22.2980 C   0  0  0  0  0  0  0  0  0  0  0  0
   11.0650   -0.4420   21.9370 C   0  0  0  0  0  0  0  0  0  0  0  0
    9.8860    0.0210   22.5430 C   0  0  0  0  0  0  0  0  0  0  0  0
    8.6130   -0.3670   22.0820 N   0  0  0  0  0  0  0  0  0  0  0  0
    8.0970    0.0750   20.8960 C   0  0  0  0  0  0  0  0  0  0  0  0
    8.7600    0.5970   20.0250 O   0  0  0  0  0  0  0  0  0  0  0  0
    6.7480   -0.0830   20.7670 N   0  0  0  0  0  0  0  0  0  0  0  0
    6.0030    0.4580   19.6930 C   0  0  0  0  0  0  0  0  0  0  0  0
    5.0850    1.4880   19.9360 C   0  0  0  0  0  0  0  0  0  0  0  0
    4.4780    2.0940   18.8280 C   0  0  0  0  0  0  0  0  0  0  0  0
    4.8140    1.6670   17.5340 C   0  0  0  0  0  0  0  0  0  0  0  0
    5.6840    0.6610   17.2920 N   0  0  0  0  0  0  0  0  0  0  0  0
    6.2770    0.0880   18.3590 C   0  0  0  0  0  0  0  0  0  0  0  0
    9.9500    1.0200   23.5160 C   0  0  0  0  0  0  0  0  0  0  0  0
  1  2  2  0
  2  3  1  0
  2  4  1  0
  4  5  1  0
  5  6  1  0
  6  7  1  0
  7  8  1  0
  8  9  1  0
  9 24  2  0
  9 10  1  0
 10 11  2  0
 11 12  1  0
 12 13  2  0
 13 14  1  0
 13 24  1  0
 14 15  1  0
 15 16  2  0
 15 17  1  0
 17 18  1  0
 18 19  2  0
 18 23  1  0
 19 20  1  0
 20 21  2  0
 21 22  1  0
 22 23  2  0
M  END
>  <original SMILES>  (1035) 
O=C(O)CNCCSc1cccc(NC(=O)Nc2cccnc2)c1

>  <AutoDock Predicted Affinity>  (1035) 
-4.693205

>  <ref_pdb>  (1035) 
x0434_0

>  <ref_mols>  (1035) 
x0434_0

>  <creator>  (1035) 
Will Poole

>  <energy minimised>  (1035) 
True

$$$$
WPC1667_minimised.pdb
     RDKit          3D

 23 24  0  0  0  0  0  0  0  0999 V2000
   12.3000    6.7710   25.4820 O   0  0  0  0  0  0  0  0  0  0  0  0
   11.9690    6.2380   24.4440 C   0  0  0  0  0  0  0  0  0  0  0  0
   10.7370    6.3410   23.9250 O   0  0  0  0  0  0  0  0  0  0  0  0
   12.9090    5.4720   23.5050 C   0  0  0  0  0  0  0  0  0  0  0  0
   12.2140    4.7350   22.4120 N   0  0  0  0  0  0  0  0  0  0  0  0
   11.3680    3.5790   22.7890 C   0  0  0  0  0  0  0  0  0  0  0  0
   12.1560    2.4300   23.4530 C   0  0  0  0  0  0  0  0  0  0  0  0
   11.7130    1.0680   22.9480 C   0  0  0  0  0  0  0  0  0  0  0  0
   12.6600    0.1260   22.5100 C   0  0  0  0  0  0  0  0  0  0  0  0
   12.2390   -1.1070   21.9850 C   0  0  0  0  0  0  0  0  0  0  0  0
   10.8680   -1.3890   21.8700 C   0  0  0  0  0  0  0  0  0  0  0  0
    9.9230   -0.4450   22.2930 C   0  0  0  0  0  0  0  0  0  0  0  0
    8.5530   -0.6200   22.0150 N   0  0  0  0  0  0  0  0  0  0  0  0
    8.0000   -0.2530   20.8190 C   0  0  0  0  0  0  0  0  0  0  0  0
    8.6600    0.0740   19.8530 O   0  0  0  0  0  0  0  0  0  0  0  0
    6.6320   -0.2340   20.7980 N   0  0  0  0  0  0  0  0  0  0  0  0
    5.8770    0.3210   19.7340 C   0  0  0  0  0  0  0  0  0  0  0  0
    4.9360    1.3210   20.0080 C   0  0  0  0  0  0  0  0  0  0  0  0
    4.3330    1.9640   18.9180 C   0  0  0  0  0  0  0  0  0  0  0  0
    4.6920    1.6000   17.6110 C   0  0  0  0  0  0  0  0  0  0  0  0
    5.5640    0.6030   17.3380 N   0  0  0  0  0  0  0  0  0  0  0  0
    6.1510   -0.0070   18.3870 C   0  0  0  0  0  0  0  0  0  0  0  0
   10.3430    0.7650   22.8540 C   0  0  0  0  0  0  0  0  0  0  0  0
  1  2  2  0
  2  3  1  0
  2  4  1  0
  4  5  1  0
  5  6  1  0
  6  7  1  0
  7  8  1  0
  8 23  2  0
  8  9  1  0
  9 10  2  0
 10 11  1  0
 11 12  2  0
 12 13  1  0
 12 23  1  0
 13 14  1  0
 14 15  2  0
 14 16  1  0
 16 17  1  0
 17 18  2  0
 17 22  1  0
 18 19  1  0
 19 20  2  0
 20 21  1  0
 21 22  2  0
M  END
>  <original SMILES>  (1036) 
O=C(O)CNCCc1cccc(NC(=O)Nc2cccnc2)c1

>  <AutoDock Predicted Affinity>  (1036) 
-5.392793

>  <ref_pdb>  (1036) 
x0434_0

>  <ref_mols>  (1036) 
x0434_0

>  <creator>  (1036) 
Will Poole

>  <energy minimised>  (1036) 
True

$$$$
WPC1569_minimised.pdb
     RDKit          3D

 22 23  0  0  0  0  0  0  0  0999 V2000
   11.0720    6.4060   24.2650 O   0  0  0  0  0  0  0  0  0  0  0  0
   10.7530    5.6100   23.4030 C   0  0  0  0  0  0  0  0  0  0  0  0
    9.7880    5.9240   22.5210 O   0  0  0  0  0  0  0  0  0  0  0  0
   11.2410    4.1460   23.3880 C   0  0  0  0  0  0  0  0  0  0  0  0
   10.5680    3.2910   24.4020 N   0  0  0  0  0  0  0  0  0  0  0  0
   11.1920    1.9870   24.6650 C   0  0  0  0  0  0  0  0  0  0  0  0
   10.9580    0.9580   23.5840 C   0  0  0  0  0  0  0  0  0  0  0  0
   12.0410    0.3060   22.9670 C   0  0  0  0  0  0  0  0  0  0  0  0
   11.8060   -0.7170   22.0340 C   0  0  0  0  0  0  0  0  0  0  0  0
   10.4890   -1.0660   21.7020 C   0  0  0  0  0  0  0  0  0  0  0  0
    9.4130   -0.3870   22.2890 C   0  0  0  0  0  0  0  0  0  0  0  0
    8.0960   -0.6030   21.8510 N   0  0  0  0  0  0  0  0  0  0  0  0
    7.6670   -0.2280   20.6120 C   0  0  0  0  0  0  0  0  0  0  0  0
    8.4070    0.0800   19.6990 O   0  0  0  0  0  0  0  0  0  0  0  0
    6.3070   -0.1560   20.5120 N   0  0  0  0  0  0  0  0  0  0  0  0
    5.6340    0.4750   19.4420 C   0  0  0  0  0  0  0  0  0  0  0  0
    4.6890    1.4710   19.7170 C   0  0  0  0  0  0  0  0  0  0  0  0
    4.1640    2.1830   18.6310 C   0  0  0  0  0  0  0  0  0  0  0  0
    4.6120    1.8990   17.3330 C   0  0  0  0  0  0  0  0  0  0  0  0
    5.4940    0.9110   17.0590 N   0  0  0  0  0  0  0  0  0  0  0  0
    5.9960    0.2240   18.1020 C   0  0  0  0  0  0  0  0  0  0  0  0
    9.6450    0.6060   23.2430 C   0  0  0  0  0  0  0  0  0  0  0  0
  1  2  2  0
  2  3  1  0
  2  4  1  0
  4  5  1  0
  5  6  1  0
  6  7  1  0
  7 22  2  0
  7  8  1  0
  8  9  2  0
  9 10  1  0
 10 11  2  0
 11 12  1  0
 11 22  1  0
 12 13  1  0
 13 14  2  0
 13 15  1  0
 15 16  1  0
 16 17  2  0
 16 21  1  0
 17 18  1  0
 18 19  2  0
 19 20  1  0
 20 21  2  0
M  END
>  <original SMILES>  (1037) 
O=C(O)CNCc1cccc(NC(=O)Nc2cccnc2)c1

>  <AutoDock Predicted Affinity>  (1037) 
-5.38169

>  <ref_pdb>  (1037) 
x0434_0

>  <ref_mols>  (1037) 
x0434_0

>  <creator>  (1037) 
Will Poole

>  <energy minimised>  (1037) 
True

$$$$
WPC2228_minimised.pdb
     RDKit          3D

 24 25  0  0  0  0  0  0  0  0999 V2000
    8.9980    4.1800   23.3810 O   0  0  0  0  0  0  0  0  0  0  0  0
    9.7370    5.1340   23.5170 C   0  0  0  0  0  0  0  0  0  0  0  0
    9.7000    6.1420   22.6460 O   0  0  0  0  0  0  0  0  0  0  0  0
   10.9570    5.1700   24.4460 C   0  0  0  0  0  0  0  0  0  0  0  0
   11.6360    3.8910   24.4730 O   0  0  0  0  0  0  0  0  0  0  0  0
   12.2050    3.4420   23.3150 C   0  0  0  0  0  0  0  0  0  0  0  0
   12.3820    4.1470   22.3380 O   0  0  0  0  0  0  0  0  0  0  0  0
   12.8080    2.0540   23.5040 C   0  0  0  0  0  0  0  0  0  0  0  0
   12.0820    0.9370   22.7820 C   0  0  0  0  0  0  0  0  0  0  0  0
   12.8280   -0.1090   22.2150 C   0  0  0  0  0  0  0  0  0  0  0  0
   12.1760   -1.1950   21.6190 C   0  0  0  0  0  0  0  0  0  0  0  0
   10.7750   -1.2310   21.5770 C   0  0  0  0  0  0  0  0  0  0  0  0
   10.0260   -0.1750   22.1150 C   0  0  0  0  0  0  0  0  0  0  0  0
    8.6260   -0.1490   21.9570 N   0  0  0  0  0  0  0  0  0  0  0  0
    8.0100   -0.0360   20.7420 C   0  0  0  0  0  0  0  0  0  0  0  0
    8.6140   -0.0590   19.6890 O   0  0  0  0  0  0  0  0  0  0  0  0
    6.6550    0.1450   20.8000 N   0  0  0  0  0  0  0  0  0  0  0  0
    5.8580    0.5840   19.7130 C   0  0  0  0  0  0  0  0  0  0  0  0
    4.9080    1.5880   19.9400 C   0  0  0  0  0  0  0  0  0  0  0  0
    4.2460    2.1230   18.8280 C   0  0  0  0  0  0  0  0  0  0  0  0
    4.5720    1.6670   17.5430 C   0  0  0  0  0  0  0  0  0  0  0  0
    5.4380    0.6550   17.3170 N   0  0  0  0  0  0  0  0  0  0  0  0
    6.0690    0.1350   18.3890 C   0  0  0  0  0  0  0  0  0  0  0  0
   10.6770    0.8990   22.7340 C   0  0  0  0  0  0  0  0  0  0  0  0
  1  2  2  0
  2  3  1  0
  2  4  1  0
  4  5  1  0
  5  6  1  0
  6  7  2  0
  6  8  1  0
  8  9  1  0
  9 24  2  0
  9 10  1  0
 10 11  2  0
 11 12  1  0
 12 13  2  0
 13 14  1  0
 13 24  1  0
 14 15  1  0
 15 16  2  0
 15 17  1  0
 17 18  1  0
 18 19  2  0
 18 23  1  0
 19 20  1  0
 20 21  2  0
 21 22  1  0
 22 23  2  0
M  END
>  <original SMILES>  (1038) 
O=C(O)COC(=O)Cc1cccc(NC(=O)Nc2cccnc2)c1

>  <AutoDock Predicted Affinity>  (1038) 
-5.2739

>  <ref_pdb>  (1038) 
x0434_0

>  <ref_mols>  (1038) 
x0434_0

>  <creator>  (1038) 
Will Poole

>  <energy minimised>  (1038) 
True

$$$$
WPC2127_minimised.pdb
     RDKit          3D

 23 24  0  0  0  0  0  0  0  0999 V2000
    9.0270    6.6790   22.8030 O   0  0  0  0  0  0  0  0  0  0  0  0
    9.6030    5.6440   23.0410 C   0  0  0  0  0  0  0  0  0  0  0  0
    8.9450    4.5670   23.4900 O   0  0  0  0  0  0  0  0  0  0  0  0
   11.0910    5.6240   23.3630 C   0  0  0  0  0  0  0  0  0  0  0  0
   11.5860    4.2940   24.5320 S   0  0  0  0  0  0  0  0  0  0  0  0
   11.7990    2.9270   23.3290 C   0  0  0  0  0  0  0  0  0  0  0  0
   11.9380    1.5930   24.0760 C   0  0  0  0  0  0  0  0  0  0  0  0
   11.4810    0.4510   23.2050 C   0  0  0  0  0  0  0  0  0  0  0  0
   12.4040   -0.3490   22.5130 C   0  0  0  0  0  0  0  0  0  0  0  0
   11.9450   -1.4060   21.7160 C   0  0  0  0  0  0  0  0  0  0  0  0
   10.5650   -1.6250   21.5730 C   0  0  0  0  0  0  0  0  0  0  0  0
    9.6480   -0.7820   22.2100 C   0  0  0  0  0  0  0  0  0  0  0  0
    8.2810   -0.8330   21.8820 N   0  0  0  0  0  0  0  0  0  0  0  0
    7.8090   -0.4360   20.6630 C   0  0  0  0  0  0  0  0  0  0  0  0
    8.5250   -0.2090   19.7070 O   0  0  0  0  0  0  0  0  0  0  0  0
    6.4530   -0.2660   20.6200 N   0  0  0  0  0  0  0  0  0  0  0  0
    5.7640    0.3700   19.5590 C   0  0  0  0  0  0  0  0  0  0  0  0
    4.8390    1.3790   19.8540 C   0  0  0  0  0  0  0  0  0  0  0  0
    4.2820    2.0850   18.7790 C   0  0  0  0  0  0  0  0  0  0  0  0
    4.6810    1.7840   17.4690 C   0  0  0  0  0  0  0  0  0  0  0  0
    5.5380    0.7800   17.1750 N   0  0  0  0  0  0  0  0  0  0  0  0
    6.0710    0.1000   18.2080 C   0  0  0  0  0  0  0  0  0  0  0  0
   10.1040    0.2370   23.0490 C   0  0  0  0  0  0  0  0  0  0  0  0
  1  2  2  0
  2  3  1  0
  2  4  1  0
  4  5  1  0
  5  6  1  0
  6  7  1  0
  7  8  1  0
  8 23  2  0
  8  9  1  0
  9 10  2  0
 10 11  1  0
 11 12  2  0
 12 13  1  0
 12 23  1  0
 13 14  1  0
 14 15  2  0
 14 16  1  0
 16 17  1  0
 17 18  2  0
 17 22  1  0
 18 19  1  0
 19 20  2  0
 20 21  1  0
 21 22  2  0
M  END
>  <original SMILES>  (1039) 
O=C(O)CSCCc1cccc(NC(=O)Nc2cccnc2)c1

>  <AutoDock Predicted Affinity>  (1039) 
-5.21444

>  <ref_pdb>  (1039) 
x0434_0

>  <ref_mols>  (1039) 
x0434_0

>  <creator>  (1039) 
Will Poole

>  <energy minimised>  (1039) 
True

$$$$
WPC2497_minimised.pdb
     RDKit          3D

 21 22  0  0  0  0  0  0  0  0999 V2000
   14.5530    4.8580   22.8660 O   0  0  0  0  0  0  0  0  0  0  0  0
   13.3780    5.0640   22.6470 C   0  0  0  0  0  0  0  0  0  0  0  0
   12.8730    5.0210   21.4050 O   0  0  0  0  0  0  0  0  0  0  0  0
   12.4020    5.3860   23.7680 C   0  0  0  0  0  0  0  0  0  0  0  0
   10.7140    4.6780   23.5480 S   0  0  0  0  0  0  0  0  0  0  0  0
   10.8440    2.9010   23.3510 C   0  0  0  0  0  0  0  0  0  0  0  0
   12.0560    2.1820   23.3740 C   0  0  0  0  0  0  0  0  0  0  0  0
   12.0620    0.7910   23.1730 C   0  0  0  0  0  0  0  0  0  0  0  0
   10.8600    0.1090   22.9240 C   0  0  0  0  0  0  0  0  0  0  0  0
    9.6560    0.8260   22.8820 C   0  0  0  0  0  0  0  0  0  0  0  0
    8.4580    0.2080   22.4760 N   0  0  0  0  0  0  0  0  0  0  0  0
    8.0440    0.2370   21.1750 C   0  0  0  0  0  0  0  0  0  0  0  0
    8.7810    0.5090   20.2500 O   0  0  0  0  0  0  0  0  0  0  0  0
    6.7030    0.0280   21.0040 N   0  0  0  0  0  0  0  0  0  0  0  0
    6.0030    0.4630   19.8520 C   0  0  0  0  0  0  0  0  0  0  0  0
    4.9980    1.4260   20.0050 C   0  0  0  0  0  0  0  0  0  0  0  0
    4.4580    1.9950   18.8460 C   0  0  0  0  0  0  0  0  0  0  0  0
    4.9390    1.5980   17.5900 C   0  0  0  0  0  0  0  0  0  0  0  0
    5.8690    0.6290   17.4290 N   0  0  0  0  0  0  0  0  0  0  0  0
    6.4040    0.0950   18.5480 C   0  0  0  0  0  0  0  0  0  0  0  0
    9.6520    2.2100   23.1010 C   0  0  0  0  0  0  0  0  0  0  0  0
  1  2  2  0
  2  3  1  0
  2  4  1  0
  4  5  1  0
  5  6  1  0
  6 21  2  0
  6  7  1  0
  7  8  2  0
  8  9  1  0
  9 10  2  0
 10 11  1  0
 10 21  1  0
 11 12  1  0
 12 13  2  0
 12 14  1  0
 14 15  1  0
 15 16  2  0
 15 20  1  0
 16 17  1  0
 17 18  2  0
 18 19  1  0
 19 20  2  0
M  END
>  <original SMILES>  (1040) 
O=C(O)CSc1cccc(NC(=O)Nc2cccnc2)c1

>  <AutoDock Predicted Affinity>  (1040) 
-5.380459

>  <ref_pdb>  (1040) 
x0434_0

>  <ref_mols>  (1040) 
x0434_0

>  <creator>  (1040) 
Will Poole

>  <energy minimised>  (1040) 
True

$$$$
WPC1890_minimised.pdb
     RDKit          3D

 22 23  0  0  0  0  0  0  0  0999 V2000
   12.8010    5.0390   24.0560 O   0  0  0  0  0  0  0  0  0  0  0  0
   12.2130    4.7980   23.0220 C   0  0  0  0  0  0  0  0  0  0  0  0
   12.6570    5.1490   21.8190 O   0  0  0  0  0  0  0  0  0  0  0  0
   10.9940    4.1870   22.9510 N   0  0  0  0  0  0  0  0  0  0  0  0
   10.2390    3.7480   24.1220 C   0  0  0  0  0  0  0  0  0  0  0  0
   10.7650    2.4070   24.6610 C   0  0  0  0  0  0  0  0  0  0  0  0
   10.7130    1.2690   23.6630 C   0  0  0  0  0  0  0  0  0  0  0  0
   11.8940    0.7110   23.1390 C   0  0  0  0  0  0  0  0  0  0  0  0
   11.8270   -0.3470   22.2170 C   0  0  0  0  0  0  0  0  0  0  0  0
   10.5750   -0.8360   21.8090 C   0  0  0  0  0  0  0  0  0  0  0  0
    9.4010   -0.2680   22.3240 C   0  0  0  0  0  0  0  0  0  0  0  0
    8.1360   -0.6170   21.8240 N   0  0  0  0  0  0  0  0  0  0  0  0
    7.7340   -0.2820   20.5640 C   0  0  0  0  0  0  0  0  0  0  0  0
    8.4940    0.0100   19.6620 O   0  0  0  0  0  0  0  0  0  0  0  0
    6.3750   -0.2170   20.4390 N   0  0  0  0  0  0  0  0  0  0  0  0
    5.7150    0.4390   19.3760 C   0  0  0  0  0  0  0  0  0  0  0  0
    4.7670    1.4290   19.6670 C   0  0  0  0  0  0  0  0  0  0  0  0
    4.2510    2.1690   18.5950 C   0  0  0  0  0  0  0  0  0  0  0  0
    4.7110    1.9190   17.2950 C   0  0  0  0  0  0  0  0  0  0  0  0
    5.5970    0.9390   17.0040 N   0  0  0  0  0  0  0  0  0  0  0  0
    6.0880    0.2240   18.0340 C   0  0  0  0  0  0  0  0  0  0  0  0
    9.4700    0.7680   23.2590 C   0  0  0  0  0  0  0  0  0  0  0  0
  1  2  2  0
  2  3  1  0
  2  4  1  0
  4  5  1  0
  5  6  1  0
  6  7  1  0
  7 22  2  0
  7  8  1  0
  8  9  2  0
  9 10  1  0
 10 11  2  0
 11 12  1  0
 11 22  1  0
 12 13  1  0
 13 14  2  0
 13 15  1  0
 15 16  1  0
 16 17  2  0
 16 21  1  0
 17 18  1  0
 18 19  2  0
 19 20  1  0
 20 21  2  0
M  END
>  <original SMILES>  (1041) 
O=C(O)NCCc1cccc(NC(=O)Nc2cccnc2)c1

>  <AutoDock Predicted Affinity>  (1041) 
-6.31503

>  <ref_pdb>  (1041) 
x0434_0

>  <ref_mols>  (1041) 
x0434_0

>  <creator>  (1041) 
Will Poole

>  <energy minimised>  (1041) 
True

$$$$
WPC1187_minimised.pdb
     RDKit          3D

 24 26  0  0  0  0  0  0  0  0999 V2000
   12.2910    6.9590   24.5390 O   0  0  0  0  0  0  0  0  0  0  0  0
   12.1250    5.8210   24.1440 C   0  0  0  0  0  0  0  0  0  0  0  0
   10.8410    5.1260   24.3790 C   0  0  0  0  0  0  0  0  0  0  0  0
   10.6710    3.8270   24.0890 C   0  0  0  0  0  0  0  0  0  0  0  0
   11.7260    3.1140   23.5430 N   0  0  0  0  0  0  0  0  0  0  0  0
   12.0630    1.7520   23.9940 C   0  0  0  0  0  0  0  0  0  0  0  0
   11.5670    0.6660   23.0690 C   0  0  0  0  0  0  0  0  0  0  0  0
   12.4710   -0.2110   22.4470 C   0  0  0  0  0  0  0  0  0  0  0  0
   11.9920   -1.2870   21.6870 C   0  0  0  0  0  0  0  0  0  0  0  0
   10.6090   -1.4700   21.5320 C   0  0  0  0  0  0  0  0  0  0  0  0
    9.7100   -0.5640   22.1080 C   0  0  0  0  0  0  0  0  0  0  0  0
    8.3340   -0.6330   21.8240 N   0  0  0  0  0  0  0  0  0  0  0  0
    7.8240   -0.3740   20.5850 C   0  0  0  0  0  0  0  0  0  0  0  0
    8.5020   -0.2970   19.5800 O   0  0  0  0  0  0  0  0  0  0  0  0
    6.4740   -0.1510   20.5870 N   0  0  0  0  0  0  0  0  0  0  0  0
    5.7620    0.4500   19.5210 C   0  0  0  0  0  0  0  0  0  0  0  0
    4.8470    1.4690   19.8110 C   0  0  0  0  0  0  0  0  0  0  0  0
    4.2680    2.1520   18.7330 C   0  0  0  0  0  0  0  0  0  0  0  0
    4.6410    1.8210   17.4220 C   0  0  0  0  0  0  0  0  0  0  0  0
    5.4830    0.8040   17.1340 N   0  0  0  0  0  0  0  0  0  0  0  0
    6.0330    0.1420   18.1700 C   0  0  0  0  0  0  0  0  0  0  0  0
   10.1860    0.4900   22.8890 C   0  0  0  0  0  0  0  0  0  0  0  0
   12.7470    3.7880   22.7300 C   0  0  0  0  0  0  0  0  0  0  0  0
   13.2350    5.0660   23.4250 C   0  0  0  0  0  0  0  0  0  0  0  0
  1  2  2  0
  2  3  1  0
  2 24  1  0
  3  4  2  0
  4  5  1  0
  5 23  1  0
  5  6  1  0
  6  7  1  0
  7 22  1  0
  7  8  2  0
  8  9  1  0
  9 10  2  0
 10 11  1  0
 11 12  1  0
 11 22  2  0
 12 13  1  0
 13 14  2  0
 13 15  1  0
 15 16  1  0
 16 17  2  0
 16 21  1  0
 17 18  1  0
 18 19  2  0
 19 20  1  0
 20 21  2  0
 23 24  1  0
M  END
>  <original SMILES>  (1042) 
O=C1C=CN(Cc2cccc(NC(=O)Nc3cccnc3)c2)CC1

>  <AutoDock Predicted Affinity>  (1042) 
-6.3281

>  <ref_pdb>  (1042) 
x0434_0

>  <ref_mols>  (1042) 
x0434_0

>  <creator>  (1042) 
Will Poole

>  <energy minimised>  (1042) 
True

$$$$
WPC1927_minimised.pdb
     RDKit          3D

 24 26  0  0  0  0  0  0  0  0999 V2000
    8.4740    0.0650   19.7860 O   0  0  0  0  0  0  0  0  0  0  0  0
    7.7340   -0.3080   20.6750 C   0  0  0  0  0  0  0  0  0  0  0  0
    6.3730   -0.2390   20.5740 N   0  0  0  0  0  0  0  0  0  0  0  0
    5.7000    0.4030   19.5090 C   0  0  0  0  0  0  0  0  0  0  0  0
    4.7570    1.3990   19.7900 C   0  0  0  0  0  0  0  0  0  0  0  0
    4.2260    2.1130   18.7070 C   0  0  0  0  0  0  0  0  0  0  0  0
    4.6620    1.8250   17.4050 C   0  0  0  0  0  0  0  0  0  0  0  0
    5.5440    0.8390   17.1250 N   0  0  0  0  0  0  0  0  0  0  0  0
    6.0560    0.1560   18.1660 C   0  0  0  0  0  0  0  0  0  0  0  0
    8.1710   -0.7720   21.8820 N   0  0  0  0  0  0  0  0  0  0  0  0
    9.5030   -0.6200   22.2970 C   0  0  0  0  0  0  0  0  0  0  0  0
   10.5040   -1.4860   21.8350 C   0  0  0  0  0  0  0  0  0  0  0  0
   11.8550   -1.1970   22.0920 C   0  0  0  0  0  0  0  0  0  0  0  0
   12.1950   -0.0360   22.8070 C   0  0  0  0  0  0  0  0  0  0  0  0
   11.1830    0.8040   23.2920 C   0  0  0  0  0  0  0  0  0  0  0  0
   11.5890    2.3100   24.1160 S   0  0  0  0  0  0  0  0  0  0  0  0
   10.8580    3.5350   22.9600 C   0  0  0  0  0  0  0  0  0  0  0  0
   11.5670    4.8190   23.2710 C   0  0  0  0  0  0  0  0  0  0  0  0
   10.9800    5.7360   24.3090 C   0  0  0  0  0  0  0  0  0  0  0  0
   12.2120    6.5570   24.5980 C   0  0  0  0  0  0  0  0  0  0  0  0
   12.3420    7.4450   25.4130 O   0  0  0  0  0  0  0  0  0  0  0  0
   13.1750    6.1270   23.7340 N   0  0  0  0  0  0  0  0  0  0  0  0
   12.7860    5.0720   22.9690 N   0  0  0  0  0  0  0  0  0  0  0  0
    9.8400    0.5120   23.0410 C   0  0  0  0  0  0  0  0  0  0  0  0
  1  2  2  0
  2  3  1  0
  2 10  1  0
  3  4  1  0
  4  5  2  0
  4  9  1  0
  5  6  1  0
  6  7  2  0
  7  8  1  0
  8  9  2  0
 10 11  1  0
 11 24  1  0
 11 12  2  0
 12 13  1  0
 13 14  2  0
 14 15  1  0
 15 16  1  0
 15 24  2  0
 16 17  1  0
 17 18  1  0
 18 19  1  0
 18 23  2  0
 19 20  1  0
 20 21  2  0
 20 22  1  0
 22 23  1  0
M  END
>  <original SMILES>  (1043) 
O=C1CC(CSc2cccc(NC(=O)Nc3cccnc3)c2)=NN1

>  <AutoDock Predicted Affinity>  (1043) 
-5.82525

>  <ref_pdb>  (1043) 
x0434_0

>  <ref_mols>  (1043) 
x0434_0

>  <creator>  (1043) 
Will Poole

>  <energy minimised>  (1043) 
True

$$$$
WPC1929_minimised.pdb
     RDKit          3D

 24 26  0  0  1  0  0  0  0  0999 V2000
    8.4210   -1.4600   19.8840 O   0  0  0  0  0  0  0  0  0  0  0  0
    7.7690   -1.3060   20.8990 C   0  0  0  0  0  0  0  0  0  0  0  0
    6.5060   -0.7690   20.8800 N   0  0  0  0  0  0  0  0  0  0  0  0
    5.9440    0.0010   19.8220 C   0  0  0  0  0  0  0  0  0  0  0  0
    5.1320    1.1000   20.1440 C   0  0  0  0  0  0  0  0  0  0  0  0
    4.6740    1.9140   19.0980 C   0  0  0  0  0  0  0  0  0  0  0  0
    5.0300    1.6120   17.7750 C   0  0  0  0  0  0  0  0  0  0  0  0
    5.7780    0.5360   17.4510 N   0  0  0  0  0  0  0  0  0  0  0  0
    6.2360   -0.2360   18.4570 C   0  0  0  0  0  0  0  0  0  0  0  0
    8.2150   -1.5930   22.1670 N   0  0  0  0  0  0  0  0  0  0  0  0
    9.5760   -1.4960   22.5370 C   0  0  0  0  0  0  0  0  0  0  0  0
   10.5860   -2.0280   21.7290 C   0  0  0  0  0  0  0  0  0  0  0  0
   11.9160   -1.6090   21.8800 C   0  0  0  0  0  0  0  0  0  0  0  0
   12.2270   -0.6270   22.8240 C   0  0  0  0  0  0  0  0  0  0  0  0
   11.2310   -0.1460   23.6850 C   0  0  0  0  0  0  0  0  0  0  0  0
   11.6430    1.2470   24.7110 S   0  0  0  0  0  0  0  0  0  0  0  0
   10.0760    2.1580   25.0980 C   0  0  0  0  0  0  0  0  0  0  0  0
    9.1940    2.2860   23.8700 C   0  0  1  0  0  0  0  0  0  0  0  0
    9.7810    2.5700   22.5140 C   0  0  0  0  0  0  0  0  0  0  0  0
    8.6180    2.0990   21.6870 C   0  0  0  0  0  0  0  0  0  0  0  0
    8.6250    1.7170   20.5400 O   0  0  0  0  0  0  0  0  0  0  0  0
    7.5590    1.9550   22.5340 N   0  0  0  0  0  0  0  0  0  0  0  0
    7.9400    1.9970   23.8420 N   0  0  0  0  0  0  0  0  0  0  0  0
    9.9190   -0.6400   23.5890 C   0  0  0  0  0  0  0  0  0  0  0  0
  1  2  2  0
  2  3  1  0
  2 10  1  0
  3  4  1  0
  4  5  2  0
  4  9  1  0
  5  6  1  0
  6  7  2  0
  7  8  1  0
  8  9  2  0
 10 11  1  0
 11 24  1  0
 11 12  2  0
 12 13  1  0
 13 14  2  0
 14 15  1  0
 15 16  1  0
 15 24  2  0
 16 17  1  0
 18 17  1  6
 18 19  1  0
 18 23  1  0
 19 20  1  0
 20 21  2  0
 20 22  1  0
 22 23  1  0
M  END
>  <original SMILES>  (1044) 
O=C1CC(CSc2cccc(NC(=O)Nc3cccnc3)c2)NN1

>  <AutoDock Predicted Affinity>  (1044) 
-5.07789

>  <ref_pdb>  (1044) 
x0434_0

>  <ref_mols>  (1044) 
x0434_0

>  <creator>  (1044) 
Will Poole

>  <energy minimised>  (1044) 
True

$$$$
WPC1883_minimised.pdb
     RDKit          3D

 23 25  0  0  0  0  0  0  0  0999 V2000
    8.5610   -0.0460   19.5250 O   0  0  0  0  0  0  0  0  0  0  0  0
    7.8950   -0.3890   20.4820 C   0  0  0  0  0  0  0  0  0  0  0  0
    6.5310   -0.3110   20.4880 N   0  0  0  0  0  0  0  0  0  0  0  0
    5.7840    0.3400   19.4790 C   0  0  0  0  0  0  0  0  0  0  0  0
    4.8860    1.3560   19.8270 C   0  0  0  0  0  0  0  0  0  0  0  0
    4.2880    2.0800   18.7860 C   0  0  0  0  0  0  0  0  0  0  0  0
    4.6200    1.7850   17.4550 C   0  0  0  0  0  0  0  0  0  0  0  0
    5.4580    0.7810   17.1130 N   0  0  0  0  0  0  0  0  0  0  0  0
    6.0310    0.0850   18.1140 C   0  0  0  0  0  0  0  0  0  0  0  0
    8.4240   -0.8300   21.6610 N   0  0  0  0  0  0  0  0  0  0  0  0
    9.7620   -0.6200   22.0440 C   0  0  0  0  0  0  0  0  0  0  0  0
   10.5740   -1.6800   22.4690 C   0  0  0  0  0  0  0  0  0  0  0  0
   11.8970   -1.4210   22.8630 C   0  0  0  0  0  0  0  0  0  0  0  0
   12.3880   -0.1020   22.8720 C   0  0  0  0  0  0  0  0  0  0  0  0
   11.5620    0.9670   22.4810 C   0  0  0  0  0  0  0  0  0  0  0  0
   12.0780    2.4040   22.5040 C   0  0  0  0  0  0  0  0  0  0  0  0
   11.1340    3.4650   23.0500 C   0  0  0  0  0  0  0  0  0  0  0  0
   11.5530    4.9110   22.9510 C   0  0  0  0  0  0  0  0  0  0  0  0
   10.2540    5.5540   23.3690 C   0  0  0  0  0  0  0  0  0  0  0  0
   10.0080    6.7370   23.4810 O   0  0  0  0  0  0  0  0  0  0  0  0
    9.3870    4.5430   23.6610 N   0  0  0  0  0  0  0  0  0  0  0  0
    9.9360    3.3050   23.4920 N   0  0  0  0  0  0  0  0  0  0  0  0
   10.2640    0.6870   22.0280 C   0  0  0  0  0  0  0  0  0  0  0  0
  1  2  2  0
  2  3  1  0
  2 10  1  0
  3  4  1  0
  4  5  2  0
  4  9  1  0
  5  6  1  0
  6  7  2  0
  7  8  1  0
  8  9  2  0
 10 11  1  0
 11 23  1  0
 11 12  2  0
 12 13  1  0
 13 14  2  0
 14 15  1  0
 15 16  1  0
 15 23  2  0
 16 17  1  0
 17 18  1  0
 17 22  2  0
 18 19  1  0
 19 20  2  0
 19 21  1  0
 21 22  1  0
M  END
>  <original SMILES>  (1045) 
O=C1CC(Cc2cccc(NC(=O)Nc3cccnc3)c2)=NN1

>  <AutoDock Predicted Affinity>  (1045) 
-6.15305

>  <ref_pdb>  (1045) 
x0434_0

>  <ref_mols>  (1045) 
x0434_0

>  <creator>  (1045) 
Will Poole

>  <energy minimised>  (1045) 
True

$$$$
WPC1882_minimised.pdb
     RDKit          3D

 23 25  0  0  1  0  0  0  0  0999 V2000
    8.4520    0.0720   19.6820 O   0  0  0  0  0  0  0  0  0  0  0  0
    7.7680   -0.1110   20.6690 C   0  0  0  0  0  0  0  0  0  0  0  0
    6.4050    0.0000   20.6470 N   0  0  0  0  0  0  0  0  0  0  0  0
    5.6800    0.5530   19.5640 C   0  0  0  0  0  0  0  0  0  0  0  0
    4.7370    1.5560   19.8180 C   0  0  0  0  0  0  0  0  0  0  0  0
    4.1660    2.2050   18.7170 C   0  0  0  0  0  0  0  0  0  0  0  0
    4.5670    1.8550   17.4190 C   0  0  0  0  0  0  0  0  0  0  0  0
    5.4350    0.8500   17.1640 N   0  0  0  0  0  0  0  0  0  0  0  0
    5.9820    0.2240   18.2240 C   0  0  0  0  0  0  0  0  0  0  0  0
    8.2870   -0.3870   21.9020 N   0  0  0  0  0  0  0  0  0  0  0  0
    9.6670   -0.3310   22.1720 C   0  0  0  0  0  0  0  0  0  0  0  0
   10.5370   -1.2490   21.5710 C   0  0  0  0  0  0  0  0  0  0  0  0
   11.9250   -1.0920   21.6970 C   0  0  0  0  0  0  0  0  0  0  0  0
   12.4390   -0.0270   22.4490 C   0  0  0  0  0  0  0  0  0  0  0  0
   11.5660    0.8660   23.0950 C   0  0  0  0  0  0  0  0  0  0  0  0
   12.1200    1.9200   24.0270 C   0  0  0  0  0  0  0  0  0  0  0  0
   12.0300    3.3560   23.5550 C   0  0  1  0  0  0  0  0  0  0  0  0
   10.7110    4.0710   23.6890 C   0  0  0  0  0  0  0  0  0  0  0  0
   11.2110    5.4910   23.7340 C   0  0  0  0  0  0  0  0  0  0  0  0
   10.5560    6.4930   23.9440 O   0  0  0  0  0  0  0  0  0  0  0  0
   12.5730    5.4340   23.5920 N   0  0  0  0  0  0  0  0  0  0  0  0
   13.0380    4.1540   23.5220 N   0  0  0  0  0  0  0  0  0  0  0  0
   10.1780    0.7140   22.9510 C   0  0  0  0  0  0  0  0  0  0  0  0
  1  2  2  0
  2  3  1  0
  2 10  1  0
  3  4  1  0
  4  5  2  0
  4  9  1  0
  5  6  1  0
  6  7  2  0
  7  8  1  0
  8  9  2  0
 10 11  1  0
 11 23  1  0
 11 12  2  0
 12 13  1  0
 13 14  2  0
 14 15  1  0
 15 16  1  0
 15 23  2  0
 17 16  1  1
 17 18  1  0
 17 22  1  0
 18 19  1  0
 19 20  2  0
 19 21  1  0
 21 22  1  0
M  END
>  <original SMILES>  (1046) 
O=C1CC(Cc2cccc(NC(=O)Nc3cccnc3)c2)NN1

>  <AutoDock Predicted Affinity>  (1046) 
-6.80194

>  <ref_pdb>  (1046) 
x0434_0

>  <ref_mols>  (1046) 
x0434_0

>  <creator>  (1046) 
Will Poole

>  <energy minimised>  (1046) 
True

$$$$
WPC1538_minimised.pdb
     RDKit          3D

 23 25  0  0  1  0  0  0  0  0999 V2000
    9.1530    5.0820   23.6730 O   0  0  0  0  0  0  0  0  0  0  0  0
   10.0670    4.2850   23.6900 C   0  0  0  0  0  0  0  0  0  0  0  0
   11.2460    4.1710   22.7500 C   0  0  0  0  0  0  0  0  0  0  0  0
   12.3690    3.5810   23.6180 C   0  0  0  0  0  0  0  0  0  0  0  0
   11.6250    2.9080   24.7880 C   0  0  2  0  0  0  0  0  0  0  0  0
   11.7660    1.3710   24.8690 C   0  0  0  0  0  0  0  0  0  0  0  0
   11.3060    0.6000   23.6520 C   0  0  0  0  0  0  0  0  0  0  0  0
   12.2460   -0.0340   22.8180 C   0  0  0  0  0  0  0  0  0  0  0  0
   11.8110   -0.8680   21.7790 C   0  0  0  0  0  0  0  0  0  0  0  0
   10.4370   -1.0230   21.5490 C   0  0  0  0  0  0  0  0  0  0  0  0
    9.5020   -0.3200   22.3200 C   0  0  0  0  0  0  0  0  0  0  0  0
    8.1400   -0.3250   21.9640 N   0  0  0  0  0  0  0  0  0  0  0  0
    7.6860   -0.0100   20.7140 C   0  0  0  0  0  0  0  0  0  0  0  0
    8.4070    0.1540   19.7480 O   0  0  0  0  0  0  0  0  0  0  0  0
    6.3290    0.1370   20.6480 N   0  0  0  0  0  0  0  0  0  0  0  0
    5.6370    0.6740   19.5380 C   0  0  0  0  0  0  0  0  0  0  0  0
    4.6870    1.6790   19.7520 C   0  0  0  0  0  0  0  0  0  0  0  0
    4.1300    2.2960   18.6260 C   0  0  0  0  0  0  0  0  0  0  0  0
    4.5510    1.9110   17.3450 C   0  0  0  0  0  0  0  0  0  0  0  0
    5.4280    0.9040   17.1280 N   0  0  0  0  0  0  0  0  0  0  0  0
    5.9630    0.3110   18.2130 C   0  0  0  0  0  0  0  0  0  0  0  0
    9.9340    0.4610   23.3940 C   0  0  0  0  0  0  0  0  0  0  0  0
   10.2630    3.3960   24.6980 N   0  0  0  0  0  0  0  0  0  0  0  0
  1  2  2  0
  2 23  1  0
  2  3  1  0
  3  4  1  0
  4  5  1  0
  5  6  1  6
  5 23  1  0
  6  7  1  0
  7 22  1  0
  7  8  2  0
  8  9  1  0
  9 10  2  0
 10 11  1  0
 11 12  1  0
 11 22  2  0
 12 13  1  0
 13 14  2  0
 13 15  1  0
 15 16  1  0
 16 17  2  0
 16 21  1  0
 17 18  1  0
 18 19  2  0
 19 20  1  0
 20 21  2  0
M  END
>  <original SMILES>  (1047) 
O=C1CCC(Cc2cccc(NC(=O)Nc3cccnc3)c2)N1

>  <AutoDock Predicted Affinity>  (1047) 
-5.91457

>  <ref_pdb>  (1047) 
x0434_0

>  <ref_mols>  (1047) 
x0434_0

>  <creator>  (1047) 
Will Poole

>  <energy minimised>  (1047) 
True

$$$$
WPC2528_minimised.pdb
     RDKit          3D

 24 26  0  0  0  0  0  0  0  0999 V2000
    8.9740    5.0250   23.8520 O   0  0  0  0  0  0  0  0  0  0  0  0
   10.1240    4.6430   23.8320 C   0  0  0  0  0  0  0  0  0  0  0  0
   11.2370    5.5050   23.2470 C   0  0  0  0  0  0  0  0  0  0  0  0
   12.6550    4.8790   23.2870 C   0  0  0  0  0  0  0  0  0  0  0  0
   12.5880    3.3430   23.2390 C   0  0  0  0  0  0  0  0  0  0  0  0
   11.7800    2.8830   24.3830 N   0  0  0  0  0  0  0  0  0  0  0  0
   11.8340    1.4280   24.6300 C   0  0  0  0  0  0  0  0  0  0  0  0
   11.3790    0.5500   23.4850 C   0  0  0  0  0  0  0  0  0  0  0  0
   12.3260   -0.1240   22.6920 C   0  0  0  0  0  0  0  0  0  0  0  0
   11.9030   -1.0450   21.7240 C   0  0  0  0  0  0  0  0  0  0  0  0
   10.5310   -1.2540   21.5240 C   0  0  0  0  0  0  0  0  0  0  0  0
    9.5870   -0.5230   22.2550 C   0  0  0  0  0  0  0  0  0  0  0  0
    8.2220   -0.5800   21.9120 N   0  0  0  0  0  0  0  0  0  0  0  0
    7.7510   -0.2450   20.6730 C   0  0  0  0  0  0  0  0  0  0  0  0
    8.4650   -0.0490   19.7080 O   0  0  0  0  0  0  0  0  0  0  0  0
    6.3920   -0.1040   20.6260 N   0  0  0  0  0  0  0  0  0  0  0  0
    5.6920    0.4900   19.5490 C   0  0  0  0  0  0  0  0  0  0  0  0
    4.7510    1.4910   19.8190 C   0  0  0  0  0  0  0  0  0  0  0  0
    4.1960    2.1720   18.7290 C   0  0  0  0  0  0  0  0  0  0  0  0
    4.6070    1.8500   17.4270 C   0  0  0  0  0  0  0  0  0  0  0  0
    5.4740    0.8480   17.1550 N   0  0  0  0  0  0  0  0  0  0  0  0
    6.0090    0.1950   18.2050 C   0  0  0  0  0  0  0  0  0  0  0  0
   10.0080    0.3550   23.2570 C   0  0  0  0  0  0  0  0  0  0  0  0
   10.4630    3.4130   24.3580 N   0  0  0  0  0  0  0  0  0  0  0  0
  1  2  2  0
  2 24  1  0
  2  3  1  0
  3  4  1  0
  4  5  1  0
  5  6  1  0
  6  7  1  0
  6 24  1  0
  7  8  1  0
  8 23  1  0
  8  9  2  0
  9 10  1  0
 10 11  2  0
 11 12  1  0
 12 13  1  0
 12 23  2  0
 13 14  1  0
 14 15  2  0
 14 16  1  0
 16 17  1  0
 17 18  2  0
 17 22  1  0
 18 19  1  0
 19 20  2  0
 20 21  1  0
 21 22  2  0
M  END
>  <original SMILES>  (1048) 
O=C1CCCN(Cc2cccc(NC(=O)Nc3cccnc3)c2)N1

>  <AutoDock Predicted Affinity>  (1048) 
-6.17132

>  <ref_pdb>  (1048) 
x0434_0

>  <ref_mols>  (1048) 
x0434_0

>  <creator>  (1048) 
Will Poole

>  <energy minimised>  (1048) 
True

$$$$
WPC1302_minimised.pdb
     RDKit          3D

 24 26  0  0  0  0  0  0  0  0999 V2000
    8.4830   -0.3810   19.6530 O   0  0  0  0  0  0  0  0  0  0  0  0
    7.7380   -0.7500   20.5390 C   0  0  0  0  0  0  0  0  0  0  0  0
    6.3770   -0.6450   20.4540 N   0  0  0  0  0  0  0  0  0  0  0  0
    5.7180    0.1070   19.4530 C   0  0  0  0  0  0  0  0  0  0  0  0
    4.8180    1.1150   19.8250 C   0  0  0  0  0  0  0  0  0  0  0  0
    4.2990    1.9310   18.8110 C   0  0  0  0  0  0  0  0  0  0  0  0
    4.7020    1.7280   17.4820 C   0  0  0  0  0  0  0  0  0  0  0  0
    5.5480    0.7400   17.1160 N   0  0  0  0  0  0  0  0  0  0  0  0
    6.0500   -0.0420   18.0910 C   0  0  0  0  0  0  0  0  0  0  0  0
    8.1620   -1.2140   21.7500 N   0  0  0  0  0  0  0  0  0  0  0  0
    9.3620   -0.7470   22.3100 C   0  0  0  0  0  0  0  0  0  0  0  0
   10.6200   -1.1600   21.8470 C   0  0  0  0  0  0  0  0  0  0  0  0
   11.7790   -0.5010   22.2920 C   0  0  0  0  0  0  0  0  0  0  0  0
   11.6700    0.5700   23.1970 C   0  0  0  0  0  0  0  0  0  0  0  0
   10.4040    0.9640   23.6660 C   0  0  0  0  0  0  0  0  0  0  0  0
   10.2220    2.1500   24.5810 C   0  0  0  0  0  0  0  0  0  0  0  0
    9.6700    3.6300   23.6310 S   0  0  0  0  0  0  0  0  0  0  0  0
   11.1670    4.5320   23.5290 C   0  0  0  0  0  0  0  0  0  0  0  0
   11.3580    5.8550   23.8390 N   0  0  0  0  0  0  0  0  0  0  0  0
   12.6510    6.0150   23.7550 N   0  0  0  0  0  0  0  0  0  0  0  0
   13.2930    4.8370   23.4030 C   0  0  0  0  0  0  0  0  0  0  0  0
   14.4830    4.6400   23.2590 O   0  0  0  0  0  0  0  0  0  0  0  0
   12.2980    3.9020   23.3330 N   0  0  0  0  0  0  0  0  0  0  0  0
    9.2580    0.2960   23.2290 C   0  0  0  0  0  0  0  0  0  0  0  0
  1  2  2  0
  2 10  1  0
  2  3  1  0
  3  4  1  0
  4  5  2  0
  4  9  1  0
  5  6  1  0
  6  7  2  0
  7  8  1  0
  8  9  2  0
 10 11  1  0
 11 12  2  0
 11 24  1  0
 12 13  1  0
 13 14  2  0
 14 15  1  0
 15 16  1  0
 15 24  2  0
 16 17  1  0
 17 18  1  0
 18 19  1  0
 18 23  2  0
 19 20  2  0
 20 21  1  0
 21 22  2  0
 21 23  1  0
M  END
>  <original SMILES>  (1049) 
O=C1N=NC(SCc2cccc(NC(=O)Nc3cccnc3)c2)=N1

>  <AutoDock Predicted Affinity>  (1049) 
-6.11012

>  <ref_pdb>  (1049) 
x0434_0

>  <ref_mols>  (1049) 
x0434_0

>  <creator>  (1049) 
Will Poole

>  <energy minimised>  (1049) 
True

$$$$
WPC2355_minimised.pdb
     RDKit          3D

 24 25  0  0  1  0  0  0  0  0999 V2000
    8.3250    4.4850   23.0450 O   0  0  0  0  0  0  0  0  0  0  0  0
    9.4120    4.4340   23.5730 C   0  0  0  0  0  0  0  0  0  0  0  0
   10.5030    3.9810   22.8880 N   0  0  0  0  0  0  0  0  0  0  0  0
   11.8090    3.7120   23.5270 C   0  0  1  0  0  0  0  0  0  0  0  0
   11.9070    2.2490   24.0420 C   0  0  0  0  0  0  0  0  0  0  0  0
   11.4860    1.1290   23.1100 C   0  0  0  0  0  0  0  0  0  0  0  0
   12.4510    0.2710   22.5510 C   0  0  0  0  0  0  0  0  0  0  0  0
   12.0540   -0.8450   21.7980 C   0  0  0  0  0  0  0  0  0  0  0  0
   10.6880   -1.1010   21.6000 C   0  0  0  0  0  0  0  0  0  0  0  0
    9.7270   -0.2410   22.1470 C   0  0  0  0  0  0  0  0  0  0  0  0
    8.3610   -0.4110   21.8570 N   0  0  0  0  0  0  0  0  0  0  0  0
    7.8350   -0.1700   20.6220 C   0  0  0  0  0  0  0  0  0  0  0  0
    8.5140   -0.0000   19.6290 O   0  0  0  0  0  0  0  0  0  0  0  0
    6.4710   -0.0750   20.6080 N   0  0  0  0  0  0  0  0  0  0  0  0
    5.7320    0.4920   19.5430 C   0  0  0  0  0  0  0  0  0  0  0  0
    4.8000    1.4980   19.8230 C   0  0  0  0  0  0  0  0  0  0  0  0
    4.2190    2.1670   18.7370 C   0  0  0  0  0  0  0  0  0  0  0  0
    4.6010    1.8310   17.4310 C   0  0  0  0  0  0  0  0  0  0  0  0
    5.4600    0.8240   17.1520 N   0  0  0  0  0  0  0  0  0  0  0  0
    6.0150    0.1800   18.1960 C   0  0  0  0  0  0  0  0  0  0  0  0
   10.1230    0.8580   22.9150 C   0  0  0  0  0  0  0  0  0  0  0  0
   13.0450    4.1670   22.7160 C   0  0  0  0  0  0  0  0  0  0  0  0
   14.1260    4.3100   23.2550 O   0  0  0  0  0  0  0  0  0  0  0  0
   12.7770    4.8440   21.5840 O   0  0  0  0  0  0  0  0  0  0  0  0
  1  2  2  0
  2  3  1  0
  3  4  1  0
  4 22  1  0
  4  5  1  6
  5  6  1  0
  6 21  2  0
  6  7  1  0
  7  8  2  0
  8  9  1  0
  9 10  2  0
 10 11  1  0
 10 21  1  0
 11 12  1  0
 12 13  2  0
 12 14  1  0
 14 15  1  0
 15 16  2  0
 15 20  1  0
 16 17  1  0
 17 18  2  0
 18 19  1  0
 19 20  2  0
 22 23  2  0
 22 24  1  0
M  END
>  <original SMILES>  (1050) 
O=CNC(Cc1cccc(NC(=O)Nc2cccnc2)c1)C(=O)O

>  <AutoDock Predicted Affinity>  (1050) 
-5.691635

>  <ref_pdb>  (1050) 
x0434_0

>  <ref_mols>  (1050) 
x0434_0

>  <creator>  (1050) 
Will Poole

>  <energy minimised>  (1050) 
True

$$$$
WPC1943_minimised.pdb
     RDKit          3D

 21 22  0  0  0  0  0  0  0  0999 V2000
   14.2180    5.3890   21.8650 O   0  0  0  0  0  0  0  0  0  0  0  0
   13.1360    4.9540   22.2070 C   0  0  0  0  0  0  0  0  0  0  0  0
   13.0340    3.8040   22.9440 N   0  0  0  0  0  0  0  0  0  0  0  0
   11.7400    3.2860   23.3940 C   0  0  0  0  0  0  0  0  0  0  0  0
   11.8510    1.9060   24.0720 C   0  0  0  0  0  0  0  0  0  0  0  0
   11.4090    0.7650   23.1860 C   0  0  0  0  0  0  0  0  0  0  0  0
   12.3510   -0.0860   22.5840 C   0  0  0  0  0  0  0  0  0  0  0  0
   11.9190   -1.1720   21.8080 C   0  0  0  0  0  0  0  0  0  0  0  0
   10.5460   -1.3890   21.6160 C   0  0  0  0  0  0  0  0  0  0  0  0
    9.6100   -0.5150   22.1830 C   0  0  0  0  0  0  0  0  0  0  0  0
    8.2470   -0.6140   21.8500 N   0  0  0  0  0  0  0  0  0  0  0  0
    7.7650   -0.2520   20.6250 C   0  0  0  0  0  0  0  0  0  0  0  0
    8.4740    0.0070   19.6730 O   0  0  0  0  0  0  0  0  0  0  0  0
    6.4030   -0.1460   20.5730 N   0  0  0  0  0  0  0  0  0  0  0  0
    5.7030    0.4660   19.5060 C   0  0  0  0  0  0  0  0  0  0  0  0
    4.7700    1.4710   19.7870 C   0  0  0  0  0  0  0  0  0  0  0  0
    4.2230    2.1710   18.7040 C   0  0  0  0  0  0  0  0  0  0  0  0
    4.6380    1.8660   17.3990 C   0  0  0  0  0  0  0  0  0  0  0  0
    5.5000    0.8630   17.1180 N   0  0  0  0  0  0  0  0  0  0  0  0
    6.0240    0.1890   18.1600 C   0  0  0  0  0  0  0  0  0  0  0  0
   10.0390    0.5500   22.9810 C   0  0  0  0  0  0  0  0  0  0  0  0
  1  2  2  0
  2  3  1  0
  3  4  1  0
  4  5  1  0
  5  6  1  0
  6 21  2  0
  6  7  1  0
  7  8  2  0
  8  9  1  0
  9 10  2  0
 10 11  1  0
 10 21  1  0
 11 12  1  0
 12 13  2  0
 12 14  1  0
 14 15  1  0
 15 16  2  0
 15 20  1  0
 16 17  1  0
 17 18  2  0
 18 19  1  0
 19 20  2  0
M  END
>  <original SMILES>  (1051) 
O=CNCCc1cccc(NC(=O)Nc2cccnc2)c1

>  <AutoDock Predicted Affinity>  (1051) 
-5.886567

>  <ref_pdb>  (1051) 
x0434_0

>  <ref_mols>  (1051) 
x0434_0

>  <creator>  (1051) 
Will Poole

>  <energy minimised>  (1051) 
True

$$$$
WPC1215_minimised.pdb
     RDKit          3D

 20 21  0  0  0  0  0  0  0  0999 V2000
   13.9250    5.9470   21.2820 O   0  0  0  0  0  0  0  0  0  0  0  0
   13.5440    5.3450   22.2650 C   0  0  0  0  0  0  0  0  0  0  0  0
   12.2390    4.9450   22.3900 N   0  0  0  0  0  0  0  0  0  0  0  0
   11.6920    4.3060   23.5830 C   0  0  0  0  0  0  0  0  0  0  0  0
   11.4760    2.8170   23.3760 C   0  0  0  0  0  0  0  0  0  0  0  0
   12.5690    1.9350   23.2990 C   0  0  0  0  0  0  0  0  0  0  0  0
   12.3650    0.5750   23.0170 C   0  0  0  0  0  0  0  0  0  0  0  0
   11.0630    0.0860   22.8180 C   0  0  0  0  0  0  0  0  0  0  0  0
    9.9700    0.9610   22.9030 C   0  0  0  0  0  0  0  0  0  0  0  0
    8.6710    0.5220   22.5760 N   0  0  0  0  0  0  0  0  0  0  0  0
    8.2140    0.4610   21.2890 C   0  0  0  0  0  0  0  0  0  0  0  0
    8.9430    0.5610   20.3250 O   0  0  0  0  0  0  0  0  0  0  0  0
    6.8570    0.3380   21.1680 N   0  0  0  0  0  0  0  0  0  0  0  0
    6.1380    0.6520   19.9870 C   0  0  0  0  0  0  0  0  0  0  0  0
    5.1080    1.5970   20.0700 C   0  0  0  0  0  0  0  0  0  0  0  0
    4.5240    2.0330   18.8750 C   0  0  0  0  0  0  0  0  0  0  0  0
    4.9890    1.5290   17.6530 C   0  0  0  0  0  0  0  0  0  0  0  0
    5.9360    0.5690   17.5610 N   0  0  0  0  0  0  0  0  0  0  0  0
    6.5110    0.1610   18.7140 C   0  0  0  0  0  0  0  0  0  0  0  0
   10.1760    2.3200   23.1810 C   0  0  0  0  0  0  0  0  0  0  0  0
  1  2  2  0
  2  3  1  0
  3  4  1  0
  4  5  1  0
  5 20  2  0
  5  6  1  0
  6  7  2  0
  7  8  1  0
  8  9  2  0
  9 10  1  0
  9 20  1  0
 10 11  1  0
 11 12  2  0
 11 13  1  0
 13 14  1  0
 14 15  2  0
 14 19  1  0
 15 16  1  0
 16 17  2  0
 17 18  1  0
 18 19  2  0
M  END
>  <original SMILES>  (1052) 
O=CNCc1cccc(NC(=O)Nc2cccnc2)c1

>  <AutoDock Predicted Affinity>  (1052) 
-5.76156

>  <ref_pdb>  (1052) 
x0434_0

>  <ref_mols>  (1052) 
x0434_0

>  <creator>  (1052) 
Will Poole

>  <energy minimised>  (1052) 
True

$$$$
WPC1712_minimised.pdb
     RDKit          3D

 20 21  0  0  0  0  0  0  0  0999 V2000
   12.1260    6.0020   24.0320 O   0  0  0  0  0  0  0  0  0  0  0  0
   12.8760    5.2840   23.3900 C   0  0  0  0  0  0  0  0  0  0  0  0
   12.6450    3.9640   23.1580 O   0  0  0  0  0  0  0  0  0  0  0  0
   11.3690    3.4120   23.5260 C   0  0  0  0  0  0  0  0  0  0  0  0
   11.2570    1.9610   23.0730 C   0  0  0  0  0  0  0  0  0  0  0  0
   12.3850    1.1350   22.8950 C   0  0  0  0  0  0  0  0  0  0  0  0
   12.2340   -0.1740   22.4020 C   0  0  0  0  0  0  0  0  0  0  0  0
   10.9520   -0.6770   22.1190 C   0  0  0  0  0  0  0  0  0  0  0  0
    9.8260    0.1330   22.3290 C   0  0  0  0  0  0  0  0  0  0  0  0
    8.5320   -0.3080   21.9900 N   0  0  0  0  0  0  0  0  0  0  0  0
    8.0020   -0.1490   20.7430 C   0  0  0  0  0  0  0  0  0  0  0  0
    8.6710    0.0870   19.7580 O   0  0  0  0  0  0  0  0  0  0  0  0
    6.6350   -0.1890   20.7060 N   0  0  0  0  0  0  0  0  0  0  0  0
    5.8770    0.3510   19.6400 C   0  0  0  0  0  0  0  0  0  0  0  0
    4.9310    1.3450   19.9200 C   0  0  0  0  0  0  0  0  0  0  0  0
    4.3330    1.9990   18.8350 C   0  0  0  0  0  0  0  0  0  0  0  0
    4.7060    1.6560   17.5280 C   0  0  0  0  0  0  0  0  0  0  0  0
    5.5800    0.6630   17.2490 N   0  0  0  0  0  0  0  0  0  0  0  0
    6.1600    0.0380   18.2930 C   0  0  0  0  0  0  0  0  0  0  0  0
    9.9820    1.4450   22.7950 C   0  0  0  0  0  0  0  0  0  0  0  0
  1  2  2  0
  2  3  1  0
  3  4  1  0
  4  5  1  0
  5 20  2  0
  5  6  1  0
  6  7  2  0
  7  8  1  0
  8  9  2  0
  9 10  1  0
  9 20  1  0
 10 11  1  0
 11 12  2  0
 11 13  1  0
 13 14  1  0
 14 15  2  0
 14 19  1  0
 15 16  1  0
 16 17  2  0
 17 18  1  0
 18 19  2  0
M  END
>  <original SMILES>  (1053) 
O=COCc1cccc(NC(=O)Nc2cccnc2)c1

>  <AutoDock Predicted Affinity>  (1053) 
-5.77065

>  <ref_pdb>  (1053) 
x0434_0

>  <ref_mols>  (1053) 
x0434_0

>  <creator>  (1053) 
Will Poole

>  <energy minimised>  (1053) 
True

$$$$
WPE0004_minimised.pdb
     RDKit          3D

 28 29  0  0  0  0  0  0  0  0999 V2000
   12.8380   -1.6870   23.6660 C   0  0  0  0  0  0  0  0  0  0  0  0
   12.9950   -0.4340   22.7750 C   0  0  0  0  0  0  0  0  0  0  0  0
   13.9460    0.5110   23.5390 C   0  0  0  0  0  0  0  0  0  0  0  0
   13.6300   -0.8280   21.5060 C   0  0  0  0  0  0  0  0  0  0  0  0
   14.1660   -1.1810   20.5470 N   0  0  0  0  0  0  0  0  0  0  0  0
   11.6050    0.1850   22.5180 C   0  0  0  0  0  0  0  0  0  0  0  0
   10.5810   -0.6330   21.9980 C   0  0  0  0  0  0  0  0  0  0  0  0
    9.2830   -0.1390   21.8740 C   0  0  0  0  0  0  0  0  0  0  0  0
   11.2860    1.5260   22.8550 C   0  0  0  0  0  0  0  0  0  0  0  0
    9.9800    2.0350   22.6830 C   0  0  0  0  0  0  0  0  0  0  0  0
    8.2270   -0.9230   21.4110 N   0  0  0  0  0  0  0  0  0  0  0  0
    8.9850    1.1820   22.2020 C   0  0  0  0  0  0  0  0  0  0  0  0
    7.7830   -0.7090   20.1490 C   0  0  0  0  0  0  0  0  0  0  0  0
    8.5060   -0.5660   19.1820 O   0  0  0  0  0  0  0  0  0  0  0  0
    6.4260   -0.5450   20.1240 N   0  0  0  0  0  0  0  0  0  0  0  0
    5.7490    0.2260   19.1550 C   0  0  0  0  0  0  0  0  0  0  0  0
    6.0360    0.1010   17.7830 C   0  0  0  0  0  0  0  0  0  0  0  0
    4.8690    1.2320   19.5750 C   0  0  0  0  0  0  0  0  0  0  0  0
    5.5210    0.9150   16.8450 N   0  0  0  0  0  0  0  0  0  0  0  0
    4.3190    2.0690   18.5950 C   0  0  0  0  0  0  0  0  0  0  0  0
    4.6900    1.8990   17.2530 C   0  0  0  0  0  0  0  0  0  0  0  0
   13.0620    5.7910   24.0740 N   0  0  0  0  0  0  0  0  0  0  0  0
   12.7610    5.3910   22.8260 C   0  0  0  0  0  0  0  0  0  0  0  0
   13.4780    5.6520   21.8950 O   0  0  0  0  0  0  0  0  0  0  0  0
   11.6010    4.7230   22.6800 N   0  0  0  0  0  0  0  0  0  0  0  0
   10.6290    4.3830   23.5740 C   0  0  0  0  0  0  0  0  0  0  0  0
   10.6230    4.7810   24.7250 O   0  0  0  0  0  0  0  0  0  0  0  0
    9.5460    3.4600   23.0320 C   0  0  0  0  0  0  0  0  0  0  0  0
  1  2  1  0
  2  6  1  0
  2  3  1  0
  2  4  1  0
  4  5  3  0
  6  9  2  0
  6  7  1  0
  7  8  2  0
  8 11  1  0
  8 12  1  0
  9 10  1  0
 10 28  1  0
 10 12  2  0
 11 13  1  0
 13 14  2  0
 13 15  1  0
 15 16  1  0
 16 17  2  0
 16 18  1  0
 17 19  1  0
 18 20  2  0
 19 21  2  0
 20 21  1  0
 22 23  1  0
 23 24  2  0
 23 25  1  0
 25 26  1  0
 26 27  2  0
 26 28  1  0
M  END
>  <original SMILES>  (1054) 
CC(C)(C#N)c1cc(CC(=O)NC(N)=O)cc(NC(=O)Nc2cccnc2)c1

>  <AutoDock Predicted Affinity>  (1054) 
-7.67951

>  <ref_pdb>  (1054) 
x0434_0

>  <ref_mols>  (1054) 
x0434_0

>  <creator>  (1054) 
Will Poole

>  <energy minimised>  (1054) 
True

$$$$
WPE0008_minimised.pdb
     RDKit          3D

 28 29  0  0  0  0  0  0  0  0999 V2000
   12.6220   -1.6030   23.5890 C   0  0  0  0  0  0  0  0  0  0  0  0
   12.8280   -0.2980   22.7750 C   0  0  0  0  0  0  0  0  0  0  0  0
   13.9680    0.4270   23.5260 C   0  0  0  0  0  0  0  0  0  0  0  0
   13.3480   -0.6790   21.4500 C   0  0  0  0  0  0  0  0  0  0  0  0
   13.8230   -1.0490   20.4650 N   0  0  0  0  0  0  0  0  0  0  0  0
   11.4390    0.4160   22.7040 C   0  0  0  0  0  0  0  0  0  0  0  0
   10.3740   -0.3630   22.1930 C   0  0  0  0  0  0  0  0  0  0  0  0
    9.0410   -0.0000   22.4020 C   0  0  0  0  0  0  0  0  0  0  0  0
   11.1000    1.6950   23.2600 C   0  0  0  0  0  0  0  0  0  0  0  0
    9.7520    1.9690   23.5750 C   0  0  0  0  0  0  0  0  0  0  0  0
    7.9820   -0.6910   21.8000 N   0  0  0  0  0  0  0  0  0  0  0  0
    8.7270    1.1270   23.1530 C   0  0  0  0  0  0  0  0  0  0  0  0
    7.6730   -0.4610   20.4940 C   0  0  0  0  0  0  0  0  0  0  0  0
    8.4840   -0.1840   19.6310 O   0  0  0  0  0  0  0  0  0  0  0  0
    6.3210   -0.4320   20.3030 N   0  0  0  0  0  0  0  0  0  0  0  0
    5.6990    0.2940   19.2670 C   0  0  0  0  0  0  0  0  0  0  0  0
    6.0920    0.1420   17.9240 C   0  0  0  0  0  0  0  0  0  0  0  0
    4.7670    1.2870   19.5960 C   0  0  0  0  0  0  0  0  0  0  0  0
    5.6140    0.9080   16.9250 N   0  0  0  0  0  0  0  0  0  0  0  0
    4.2720    2.0850   18.5570 C   0  0  0  0  0  0  0  0  0  0  0  0
    4.7330    1.8810   17.2490 C   0  0  0  0  0  0  0  0  0  0  0  0
    8.9300    5.8690   22.0900 N   0  0  0  0  0  0  0  0  0  0  0  0
    9.9100    5.8200   23.0120 C   0  0  0  0  0  0  0  0  0  0  0  0
   10.0090    6.6770   23.8500 O   0  0  0  0  0  0  0  0  0  0  0  0
   10.6850    4.7200   22.8950 N   0  0  0  0  0  0  0  0  0  0  0  0
   11.6110    4.2290   23.7710 C   0  0  0  0  0  0  0  0  0  0  0  0
   12.0020    4.8510   24.7360 O   0  0  0  0  0  0  0  0  0  0  0  0
   12.1220    2.8100   23.5040 C   0  0  0  0  0  0  0  0  0  0  0  0
  1  2  1  0
  2  6  1  0
  2  3  1  0
  2  4  1  0
  4  5  3  0
  6  9  2  0
  6  7  1  0
  7  8  2  0
  8 11  1  0
  8 12  1  0
  9 28  1  0
  9 10  1  0
 10 12  2  0
 11 13  1  0
 13 14  2  0
 13 15  1  0
 15 16  1  0
 16 17  2  0
 16 18  1  0
 17 19  1  0
 18 20  2  0
 19 21  2  0
 20 21  1  0
 22 23  1  0
 23 24  2  0
 23 25  1  0
 25 26  1  0
 26 27  2  0
 26 28  1  0
M  END
>  <original SMILES>  (1055) 
CC(C)(C#N)c1cc(NC(=O)Nc2cccnc2)ccc1CC(=O)NC(N)=O

>  <AutoDock Predicted Affinity>  (1055) 
-8.13712

>  <ref_pdb>  (1055) 
x0434_0

>  <ref_mols>  (1055) 
x0434_0

>  <creator>  (1055) 
Will Poole

>  <energy minimised>  (1055) 
True

$$$$
WPE0003_minimised.pdb
     RDKit          3D

 28 30  0  0  0  0  0  0  0  0999 V2000
   13.9870   -1.6180   23.7210 C   0  0  0  0  0  0  0  0  0  0  0  0
   13.2090   -0.6160   22.8360 C   0  0  0  0  0  0  0  0  0  0  0  0
   13.8040    0.8060   22.9600 C   0  0  0  0  0  0  0  0  0  0  0  0
   13.3960   -1.0400   21.4360 C   0  0  0  0  0  0  0  0  0  0  0  0
   13.6430   -1.3770   20.3600 N   0  0  0  0  0  0  0  0  0  0  0  0
   11.7460   -0.5730   23.3130 C   0  0  0  0  0  0  0  0  0  0  0  0
   10.6320   -0.8630   22.4950 C   0  0  0  0  0  0  0  0  0  0  0  0
    9.3280   -0.7620   23.0180 C   0  0  0  0  0  0  0  0  0  0  0  0
   11.5120   -0.1970   24.6510 C   0  0  0  0  0  0  0  0  0  0  0  0
   10.2210   -0.0920   25.1740 C   0  0  0  0  0  0  0  0  0  0  0  0
    8.1910   -1.0320   22.2220 N   0  0  0  0  0  0  0  0  0  0  0  0
    9.1280   -0.3700   24.3520 C   0  0  0  0  0  0  0  0  0  0  0  0
    7.8830   -0.2760   21.0990 C   0  0  0  0  0  0  0  0  0  0  0  0
    8.6920    0.3860   20.4710 O   0  0  0  0  0  0  0  0  0  0  0  0
    6.5550   -0.3240   20.7480 N   0  0  0  0  0  0  0  0  0  0  0  0
    5.9660    0.3610   19.6600 C   0  0  0  0  0  0  0  0  0  0  0  0
    6.3810    0.1170   18.3360 C   0  0  0  0  0  0  0  0  0  0  0  0
    4.9920    1.3390   19.8950 C   0  0  0  0  0  0  0  0  0  0  0  0
    5.8640    0.7550   17.2660 N   0  0  0  0  0  0  0  0  0  0  0  0
    4.4760    2.0260   18.7880 C   0  0  0  0  0  0  0  0  0  0  0  0
    4.9420    1.7170   17.5030 C   0  0  0  0  0  0  0  0  0  0  0  0
    7.4750   -2.1990   22.6100 C   0  0  0  0  0  0  0  0  0  0  0  0
    7.8980   -3.4440   22.1160 C   0  0  0  0  0  0  0  0  0  0  0  0
    7.2130   -4.6200   22.4660 C   0  0  0  0  0  0  0  0  0  0  0  0
    6.1080   -4.5490   23.3260 C   0  0  0  0  0  0  0  0  0  0  0  0
    5.4370   -5.6730   23.6510 F   0  0  0  0  0  0  0  0  0  0  0  0
    5.7020   -3.3140   23.8540 C   0  0  0  0  0  0  0  0  0  0  0  0
    6.3900   -2.1390   23.5010 C   0  0  0  0  0  0  0  0  0  0  0  0
  1  2  1  0
  2  4  1  0
  2  3  1  0
  2  6  1  0
  4  5  3  0
  6  9  2  0
  6  7  1  0
  7  8  2  0
  8 11  1  0
  8 12  1  0
  9 10  1  0
 10 12  2  0
 11 22  1  0
 11 13  1  0
 13 14  2  0
 13 15  1  0
 15 16  1  0
 16 17  2  0
 16 18  1  0
 17 19  1  0
 18 20  2  0
 19 21  2  0
 20 21  1  0
 22 23  2  0
 22 28  1  0
 23 24  1  0
 24 25  2  0
 25 26  1  0
 25 27  1  0
 27 28  2  0
M  END
>  <original SMILES>  (1056) 
CC(C)(C#N)c1cccc(N(C(=O)Nc2cccnc2)c2ccc(F)cc2)c1

>  <AutoDock Predicted Affinity>  (1056) 
-8.44985

>  <ref_pdb>  (1056) 
x0434_0

>  <ref_mols>  (1056) 
x0434_0

>  <creator>  (1056) 
Will Poole

>  <energy minimised>  (1056) 
True

$$$$
WPE0009_minimised.pdb
     RDKit          3D

 30 32  0  0  0  0  0  0  0  0999 V2000
    6.7080   -3.7230   24.2730 C   0  0  0  0  0  0  0  0  0  0  0  0
    7.6860   -3.8890   23.0850 C   0  0  0  0  0  0  0  0  0  0  0  0
    7.2480   -5.0300   22.1350 C   0  0  0  0  0  0  0  0  0  0  0  0
    9.1050   -4.1860   23.6190 C   0  0  0  0  0  0  0  0  0  0  0  0
    7.8100   -2.6440   22.3520 O   0  0  0  0  0  0  0  0  0  0  0  0
    6.7670   -1.9650   21.7810 C   0  0  0  0  0  0  0  0  0  0  0  0
    5.6340   -2.4150   21.6960 O   0  0  0  0  0  0  0  0  0  0  0  0
    7.1720   -0.8290   21.0950 N   0  0  0  0  0  0  0  0  0  0  0  0
    8.4340   -0.2520   21.2010 C   0  0  0  0  0  0  0  0  0  0  0  0
    8.9540    0.2360   20.2110 O   0  0  0  0  0  0  0  0  0  0  0  0
    9.0720   -0.1400   22.4410 N   0  0  0  0  0  0  0  0  0  0  0  0
   10.4670    0.1280   22.4890 C   0  0  0  0  0  0  0  0  0  0  0  0
   11.3760   -0.8320   22.0080 C   0  0  0  0  0  0  0  0  0  0  0  0
   12.7570   -0.5790   22.0410 C   0  0  0  0  0  0  0  0  0  0  0  0
   13.2340    0.6320   22.5650 C   0  0  0  0  0  0  0  0  0  0  0  0
   12.3290    1.5990   23.0320 C   0  0  0  0  0  0  0  0  0  0  0  0
   10.9480    1.3480   22.9950 C   0  0  0  0  0  0  0  0  0  0  0  0
    6.3050   -0.2640   20.0980 C   0  0  0  0  0  0  0  0  0  0  0  0
    5.2850    0.6300   20.4660 C   0  0  0  0  0  0  0  0  0  0  0  0
    4.5810    1.2920   19.4470 C   0  0  0  0  0  0  0  0  0  0  0  0
    4.9040    1.0460   18.1050 C   0  0  0  0  0  0  0  0  0  0  0  0
    5.8520    0.1580   17.7370 N   0  0  0  0  0  0  0  0  0  0  0  0
    6.5430   -0.4600   18.7180 C   0  0  0  0  0  0  0  0  0  0  0  0
    8.4080   -0.0710   23.7040 C   0  0  0  0  0  0  0  0  0  0  0  0
    8.9610   -0.6970   24.8400 C   0  0  0  0  0  0  0  0  0  0  0  0
    8.3240   -0.5990   26.0900 C   0  0  0  0  0  0  0  0  0  0  0  0
    7.1290    0.1240   26.2100 C   0  0  0  0  0  0  0  0  0  0  0  0
    6.5050    0.2100   27.4030 F   0  0  0  0  0  0  0  0  0  0  0  0
    6.5820    0.7700   25.0920 C   0  0  0  0  0  0  0  0  0  0  0  0
    7.2300    0.6900   23.8470 C   0  0  0  0  0  0  0  0  0  0  0  0
  1  2  1  0
  2  5  1  0
  2  3  1  0
  2  4  1  0
  5  6  1  0
  6  8  1  0
  6  7  2  0
  8  9  1  0
  8 18  1  0
  9 11  1  0
  9 10  2  0
 11 12  1  0
 11 24  1  0
 12 13  2  0
 12 17  1  0
 13 14  1  0
 14 15  2  0
 15 16  1  0
 16 17  2  0
 18 19  2  0
 18 23  1  0
 19 20  1  0
 20 21  2  0
 21 22  1  0
 22 23  2  0
 24 25  2  0
 24 30  1  0
 25 26  1  0
 26 27  2  0
 27 28  1  0
 27 29  1  0
 29 30  2  0
M  END
>  <original SMILES>  (1057) 
CC(C)(C)OC(=O)N(C(=O)N(c1ccccc1)c1ccc(F)cc1)c1cccnc1

>  <AutoDock Predicted Affinity>  (1057) 
-7.89131

>  <ref_pdb>  (1057) 
x0434_0

>  <ref_mols>  (1057) 
x0434_0

>  <creator>  (1057) 
Will Poole

>  <energy minimised>  (1057) 
True

$$$$
WPE0010_minimised.pdb
     RDKit          3D

 35 36  0  0  0  0  0  0  0  0999 V2000
   13.1480   -1.3330   23.7840 C   0  0  0  0  0  0  0  0  0  0  0  0
   13.1630   -0.0950   22.8460 C   0  0  0  0  0  0  0  0  0  0  0  0
   14.2450    0.8180   23.4450 C   0  0  0  0  0  0  0  0  0  0  0  0
   13.6430   -0.5470   21.5270 C   0  0  0  0  0  0  0  0  0  0  0  0
   14.0750   -0.9670   20.5420 N   0  0  0  0  0  0  0  0  0  0  0  0
   11.7080    0.4680   22.7850 C   0  0  0  0  0  0  0  0  0  0  0  0
   10.7480   -0.4460   22.2950 C   0  0  0  0  0  0  0  0  0  0  0  0
    9.3830   -0.1950   22.4040 C   0  0  0  0  0  0  0  0  0  0  0  0
   11.2250    1.7280   23.2830 C   0  0  0  0  0  0  0  0  0  0  0  0
    9.8390    1.8900   23.5050 C   0  0  0  0  0  0  0  0  0  0  0  0
    8.4580   -1.0250   21.7650 N   0  0  0  0  0  0  0  0  0  0  0  0
    8.9220    0.9420   23.0600 C   0  0  0  0  0  0  0  0  0  0  0  0
    7.8020   -0.6520   20.6260 C   0  0  0  0  0  0  0  0  0  0  0  0
    8.2120    0.3090   19.9900 O   0  0  0  0  0  0  0  0  0  0  0  0
    6.6410   -1.3230   20.2600 N   0  0  0  0  0  0  0  0  0  0  0  0
    5.8150   -0.5610   19.3780 C   0  0  0  0  0  0  0  0  0  0  0  0
    5.9610   -0.6580   17.9840 C   0  0  0  0  0  0  0  0  0  0  0  0
    5.0450    0.4940   19.8970 C   0  0  0  0  0  0  0  0  0  0  0  0
    5.4060    0.2160   17.1210 N   0  0  0  0  0  0  0  0  0  0  0  0
    4.4560    1.3950   18.9980 C   0  0  0  0  0  0  0  0  0  0  0  0
    4.6770    1.2340   17.6240 C   0  0  0  0  0  0  0  0  0  0  0  0
    8.8000    5.8220   22.0400 N   0  0  0  0  0  0  0  0  0  0  0  0
    9.7830    5.8440   22.9600 C   0  0  0  0  0  0  0  0  0  0  0  0
    9.8810    6.7550   23.7400 O   0  0  0  0  0  0  0  0  0  0  0  0
   10.5730    4.7510   22.9040 N   0  0  0  0  0  0  0  0  0  0  0  0
   11.4730    4.3070   23.8290 C   0  0  0  0  0  0  0  0  0  0  0  0
   11.7440    4.9310   24.8320 O   0  0  0  0  0  0  0  0  0  0  0  0
   12.1210    2.9440   23.5650 C   0  0  0  0  0  0  0  0  0  0  0  0
    5.3380   -4.1620   23.1380 C   0  0  0  0  0  0  0  0  0  0  0  0
    6.6520   -4.3750   22.3520 C   0  0  0  0  0  0  0  0  0  0  0  0
    6.5690   -5.5840   21.3930 C   0  0  0  0  0  0  0  0  0  0  0  0
    7.8270   -4.5700   23.3360 C   0  0  0  0  0  0  0  0  0  0  0  0
    6.9780   -3.1660   21.6320 O   0  0  0  0  0  0  0  0  0  0  0  0
    6.2240   -2.5950   20.6430 C   0  0  0  0  0  0  0  0  0  0  0  0
    5.3040   -3.1740   20.0870 O   0  0  0  0  0  0  0  0  0  0  0  0
  1  2  1  0
  2  6  1  0
  2  3  1  0
  2  4  1  0
  4  5  3  0
  6  9  2  0
  6  7  1  0
  7  8  2  0
  8 11  1  0
  8 12  1  0
  9 28  1  0
  9 10  1  0
 10 12  2  0
 11 13  1  0
 13 14  2  0
 13 15  1  0
 15 34  1  0
 15 16  1  0
 16 17  2  0
 16 18  1  0
 17 19  1  0
 18 20  2  0
 19 21  2  0
 20 21  1  0
 22 23  1  0
 23 24  2  0
 23 25  1  0
 25 26  1  0
 26 27  2  0
 26 28  1  0
 29 30  1  0
 30 33  1  0
 30 31  1  0
 30 32  1  0
 33 34  1  0
 34 35  2  0
M  END
>  <original SMILES>  (1058) 
CC(C)(C)OC(=O)N(C(=O)Nc1ccc(CC(=O)NC(N)=O)c(C(C)(C)C#N)c1)c1cccnc1

>  <AutoDock Predicted Affinity>  (1058) 
-9.41102

>  <ref_pdb>  (1058) 
x0434_0

>  <ref_mols>  (1058) 
x0434_0

>  <creator>  (1058) 
Will Poole

>  <energy minimised>  (1058) 
True

$$$$
WPE0007_minimised.pdb
     RDKit          3D

 30 31  0  0  0  0  0  0  0  0999 V2000
    9.0690    5.8070   22.3120 N   0  0  0  0  0  0  0  0  0  0  0  0
   10.1560    5.8470   23.1090 C   0  0  0  0  0  0  0  0  0  0  0  0
   10.2260    6.6260   24.0200 O   0  0  0  0  0  0  0  0  0  0  0  0
   11.1000    4.9460   22.7680 N   0  0  0  0  0  0  0  0  0  0  0  0
   12.2820    4.6390   23.3840 C   0  0  0  0  0  0  0  0  0  0  0  0
   12.7290    5.2310   24.3440 O   0  0  0  0  0  0  0  0  0  0  0  0
   12.9940    3.4280   22.7930 C   0  0  0  0  0  0  0  0  0  0  0  0
   12.1870    2.1300   22.8680 C   0  0  0  0  0  0  0  0  0  0  0  0
   12.4840    1.1020   21.9570 C   0  0  0  0  0  0  0  0  0  0  0  0
   11.5810    0.0480   21.7610 C   0  0  0  0  0  0  0  0  0  0  0  0
   10.3890    0.0090   22.4970 C   0  0  0  0  0  0  0  0  0  0  0  0
    9.3190   -0.7930   22.0530 N   0  0  0  0  0  0  0  0  0  0  0  0
    8.5100   -0.4400   20.9960 C   0  0  0  0  0  0  0  0  0  0  0  0
    8.8450    0.4910   20.2790 O   0  0  0  0  0  0  0  0  0  0  0  0
    7.3020   -1.1020   20.7780 N   0  0  0  0  0  0  0  0  0  0  0  0
    6.4150   -0.4170   19.8790 C   0  0  0  0  0  0  0  0  0  0  0  0
    5.6080    0.6270   20.3600 C   0  0  0  0  0  0  0  0  0  0  0  0
    4.8860    1.3960   19.4350 C   0  0  0  0  0  0  0  0  0  0  0  0
    5.0030    1.1180   18.0650 C   0  0  0  0  0  0  0  0  0  0  0  0
    5.7640    0.1080   17.5920 N   0  0  0  0  0  0  0  0  0  0  0  0
    6.4580   -0.6280   18.4860 C   0  0  0  0  0  0  0  0  0  0  0  0
   10.1680    0.9350   23.5250 C   0  0  0  0  0  0  0  0  0  0  0  0
   11.0730    1.9890   23.7220 C   0  0  0  0  0  0  0  0  0  0  0  0
    6.2770   -3.8390   23.9110 C   0  0  0  0  0  0  0  0  0  0  0  0
    7.4880   -4.0760   22.9770 C   0  0  0  0  0  0  0  0  0  0  0  0
    7.2740   -5.2890   22.0410 C   0  0  0  0  0  0  0  0  0  0  0  0
    8.7710   -4.2850   23.8130 C   0  0  0  0  0  0  0  0  0  0  0  0
    7.7440   -2.8740   22.2130 O   0  0  0  0  0  0  0  0  0  0  0  0
    6.8670   -2.3060   21.3290 C   0  0  0  0  0  0  0  0  0  0  0  0
    5.8480   -2.8640   20.9550 O   0  0  0  0  0  0  0  0  0  0  0  0
  1  2  1  0
  2  3  2  0
  2  4  1  0
  4  5  1  0
  5  6  2  0
  5  7  1  0
  7  8  1  0
  8 23  2  0
  8  9  1  0
  9 10  2  0
 10 11  1  0
 11 12  1  0
 11 22  2  0
 12 13  1  0
 13 14  2  0
 13 15  1  0
 15 29  1  0
 15 16  1  0
 16 17  2  0
 16 21  1  0
 17 18  1  0
 18 19  2  0
 19 20  1  0
 20 21  2  0
 22 23  1  0
 24 25  1  0
 25 28  1  0
 25 26  1  0
 25 27  1  0
 28 29  1  0
 29 30  2  0
M  END
>  <original SMILES>  (1059) 
CC(C)(C)OC(=O)N(C(=O)Nc1ccc(CC(=O)NC(N)=O)cc1)c1cccnc1

>  <AutoDock Predicted Affinity>  (1059) 
-9.02116

>  <ref_pdb>  (1059) 
x0434_0

>  <ref_mols>  (1059) 
x0434_0

>  <creator>  (1059) 
Will Poole

>  <energy minimised>  (1059) 
True

$$$$
WPE0005_minimised.pdb
     RDKit          3D

 29 30  0  0  0  0  0  0  0  0999 V2000
   14.4920    4.7610   23.1960 N   0  0  0  0  0  0  0  0  0  0  0  0
   13.4730    4.2430   22.6790 C   0  0  0  0  0  0  0  0  0  0  0  0
   12.2700    4.8170   22.6650 N   0  0  0  0  0  0  0  0  0  0  0  0
   13.3860    2.9910   22.2050 N   0  0  0  0  0  0  0  0  0  0  0  0
   14.4300    1.9630   22.3340 C   0  0  0  0  0  0  0  0  0  0  0  0
   13.9650    0.7980   23.2240 C   0  0  0  0  0  0  0  0  0  0  0  0
   12.5720    0.3070   22.9140 C   0  0  0  0  0  0  0  0  0  0  0  0
   12.3870   -0.8050   22.0800 C   0  0  0  0  0  0  0  0  0  0  0  0
   11.0910   -1.2710   21.8360 C   0  0  0  0  0  0  0  0  0  0  0  0
    9.9910   -0.6070   22.3860 C   0  0  0  0  0  0  0  0  0  0  0  0
    8.7060   -1.0250   22.0230 N   0  0  0  0  0  0  0  0  0  0  0  0
    7.9940   -0.5290   20.9580 C   0  0  0  0  0  0  0  0  0  0  0  0
    8.4100    0.4580   20.3700 O   0  0  0  0  0  0  0  0  0  0  0  0
    6.8160   -1.1740   20.5690 N   0  0  0  0  0  0  0  0  0  0  0  0
    6.0150   -0.4150   19.6560 C   0  0  0  0  0  0  0  0  0  0  0  0
    5.2690    0.6800   20.1240 C   0  0  0  0  0  0  0  0  0  0  0  0
    4.6390    1.5070   19.1840 C   0  0  0  0  0  0  0  0  0  0  0  0
    4.7930    1.2370   17.8170 C   0  0  0  0  0  0  0  0  0  0  0  0
    5.4930    0.1770   17.3620 N   0  0  0  0  0  0  0  0  0  0  0  0
    6.0930   -0.6220   18.2670 C   0  0  0  0  0  0  0  0  0  0  0  0
   10.1680    0.4950   23.2300 C   0  0  0  0  0  0  0  0  0  0  0  0
   11.4650    0.9410   23.5100 C   0  0  0  0  0  0  0  0  0  0  0  0
    5.5010   -4.1790   23.3260 C   0  0  0  0  0  0  0  0  0  0  0  0
    6.8100   -4.3420   22.5200 C   0  0  0  0  0  0  0  0  0  0  0  0
    6.7220   -5.4980   21.4960 C   0  0  0  0  0  0  0  0  0  0  0  0
    7.9930   -4.5940   23.4810 C   0  0  0  0  0  0  0  0  0  0  0  0
    7.1310   -3.0910   21.8710 O   0  0  0  0  0  0  0  0  0  0  0  0
    6.3740   -2.4560   20.9220 C   0  0  0  0  0  0  0  0  0  0  0  0
    5.4500   -3.0130   20.3470 O   0  0  0  0  0  0  0  0  0  0  0  0
  1  2  2  0
  2  3  1  0
  2  4  1  0
  4  5  1  0
  5  6  1  0
  6  7  1  0
  7 22  2  0
  7  8  1  0
  8  9  2  0
  9 10  1  0
 10 11  1  0
 10 21  2  0
 11 12  1  0
 12 13  2  0
 12 14  1  0
 14 28  1  0
 14 15  1  0
 15 16  2  0
 15 20  1  0
 16 17  1  0
 17 18  2  0
 18 19  1  0
 19 20  2  0
 21 22  1  0
 23 24  1  0
 24 27  1  0
 24 25  1  0
 24 26  1  0
 27 28  1  0
 28 29  2  0
M  END
>  <original SMILES>  (1060) 
CC(C)(C)OC(=O)N(C(=O)Nc1ccc(CCNC(=N)N)cc1)c1cccnc1

>  <AutoDock Predicted Affinity>  (1060) 
-8.52662

>  <ref_pdb>  (1060) 
x0434_0

>  <ref_mols>  (1060) 
x0434_0

>  <creator>  (1060) 
Will Poole

>  <energy minimised>  (1060) 
True

$$$$
WPE0001_minimised.pdb
     RDKit          3D

 28 29  0  0  0  0  0  0  0  0999 V2000
   14.0670   -1.4030   23.8700 C   0  0  0  0  0  0  0  0  0  0  0  0
   13.2930   -0.4230   22.9550 C   0  0  0  0  0  0  0  0  0  0  0  0
   13.8440    1.0130   23.0920 C   0  0  0  0  0  0  0  0  0  0  0  0
   13.5340   -0.8540   21.5660 C   0  0  0  0  0  0  0  0  0  0  0  0
   13.8130   -1.2040   20.5020 N   0  0  0  0  0  0  0  0  0  0  0  0
   11.8140   -0.4190   23.3790 C   0  0  0  0  0  0  0  0  0  0  0  0
   10.7450   -0.7380   22.5180 C   0  0  0  0  0  0  0  0  0  0  0  0
    9.4290   -0.7250   23.0060 C   0  0  0  0  0  0  0  0  0  0  0  0
   11.5120   -0.0750   24.7130 C   0  0  0  0  0  0  0  0  0  0  0  0
   10.1990   -0.0520   25.1970 C   0  0  0  0  0  0  0  0  0  0  0  0
    8.3610   -1.1400   22.2060 N   0  0  0  0  0  0  0  0  0  0  0  0
    9.1510   -0.3910   24.3370 C   0  0  0  0  0  0  0  0  0  0  0  0
    7.9710   -0.7010   20.9720 C   0  0  0  0  0  0  0  0  0  0  0  0
    8.5650    0.2020   20.4060 O   0  0  0  0  0  0  0  0  0  0  0  0
    6.8290   -1.2900   20.4350 N   0  0  0  0  0  0  0  0  0  0  0  0
    6.1080   -0.4600   19.5250 C   0  0  0  0  0  0  0  0  0  0  0  0
    6.1830   -0.6330   18.1310 C   0  0  0  0  0  0  0  0  0  0  0  0
    5.3760    0.6310   20.0220 C   0  0  0  0  0  0  0  0  0  0  0  0
    5.5880    0.1980   17.2490 N   0  0  0  0  0  0  0  0  0  0  0  0
    4.7460    1.4860   19.1060 C   0  0  0  0  0  0  0  0  0  0  0  0
    4.8880    1.2460   17.7330 C   0  0  0  0  0  0  0  0  0  0  0  0
    5.2730   -4.2090   23.0910 C   0  0  0  0  0  0  0  0  0  0  0  0
    6.5830   -4.4730   22.3150 C   0  0  0  0  0  0  0  0  0  0  0  0
    6.4430   -5.6290   21.3020 C   0  0  0  0  0  0  0  0  0  0  0  0
    7.7220   -4.7840   23.3110 C   0  0  0  0  0  0  0  0  0  0  0  0
    7.0060   -3.2590   21.6610 O   0  0  0  0  0  0  0  0  0  0  0  0
    6.3250   -2.5660   20.6980 C   0  0  0  0  0  0  0  0  0  0  0  0
    5.4150   -3.0630   20.0520 O   0  0  0  0  0  0  0  0  0  0  0  0
  1  2  1  0
  2  4  1  0
  2  3  1  0
  2  6  1  0
  4  5  3  0
  6  9  2  0
  6  7  1  0
  7  8  2  0
  8 11  1  0
  8 12  1  0
  9 10  1  0
 10 12  2  0
 11 13  1  0
 13 14  2  0
 13 15  1  0
 15 16  1  0
 15 27  1  0
 16 17  2  0
 16 18  1  0
 17 19  1  0
 18 20  2  0
 19 21  2  0
 20 21  1  0
 22 23  1  0
 23 26  1  0
 23 24  1  0
 23 25  1  0
 26 27  1  0
 27 28  2  0
M  END
>  <original SMILES>  (1061) 
CC(C)(C)OC(=O)N(C(=O)Nc1cccc(C(C)(C)C#N)c1)c1cccnc1

>  <AutoDock Predicted Affinity>  (1061) 
-8.66036

>  <ref_pdb>  (1061) 
x0434_0

>  <ref_mols>  (1061) 
x0434_0

>  <creator>  (1061) 
Will Poole

>  <energy minimised>  (1061) 
True

$$$$
WPE0006_minimised.pdb
     RDKit          3D

 30 32  0  0  0  0  0  0  0  0999 V2000
   14.4640    4.7340   23.2080 N   0  0  0  0  0  0  0  0  0  0  0  0
   13.4410    4.2100   22.7060 C   0  0  0  0  0  0  0  0  0  0  0  0
   12.2440    4.7970   22.6710 N   0  0  0  0  0  0  0  0  0  0  0  0
   13.3390    2.9440   22.2720 N   0  0  0  0  0  0  0  0  0  0  0  0
   14.3840    1.9160   22.3860 C   0  0  0  0  0  0  0  0  0  0  0  0
   13.9180    0.7140   23.2280 C   0  0  0  0  0  0  0  0  0  0  0  0
   12.5000    0.2720   22.9420 C   0  0  0  0  0  0  0  0  0  0  0  0
   12.2440   -0.7670   22.0340 C   0  0  0  0  0  0  0  0  0  0  0  0
   10.9220   -1.1550   21.7860 C   0  0  0  0  0  0  0  0  0  0  0  0
    9.8660   -0.5010   22.4280 C   0  0  0  0  0  0  0  0  0  0  0  0
    8.5470   -0.7920   22.0640 N   0  0  0  0  0  0  0  0  0  0  0  0
    7.9400   -0.3090   20.9350 C   0  0  0  0  0  0  0  0  0  0  0  0
    8.5540    0.3040   20.0800 O   0  0  0  0  0  0  0  0  0  0  0  0
    6.5720   -0.5560   20.8650 N   0  0  0  0  0  0  0  0  0  0  0  0
    5.8020    0.0380   19.8240 C   0  0  0  0  0  0  0  0  0  0  0  0
    4.8520    1.0330   20.1110 C   0  0  0  0  0  0  0  0  0  0  0  0
    4.2860    1.7350   19.0370 C   0  0  0  0  0  0  0  0  0  0  0  0
    4.6810    1.4320   17.7250 C   0  0  0  0  0  0  0  0  0  0  0  0
    5.5620    0.4500   17.4330 N   0  0  0  0  0  0  0  0  0  0  0  0
    6.1200   -0.2090   18.4700 C   0  0  0  0  0  0  0  0  0  0  0  0
   10.1170    0.5100   23.3620 C   0  0  0  0  0  0  0  0  0  0  0  0
   11.4370    0.8900   23.6270 C   0  0  0  0  0  0  0  0  0  0  0  0
    5.0440   -4.6940   25.5440 C   0  0  0  0  0  0  0  0  0  0  0  0
    4.2590   -3.6690   24.9020 O   0  0  0  0  0  0  0  0  0  0  0  0
    4.7980   -2.9150   23.8920 C   0  0  0  0  0  0  0  0  0  0  0  0
    5.2660   -3.5200   22.7150 C   0  0  0  0  0  0  0  0  0  0  0  0
    5.8120   -2.7270   21.6900 C   0  0  0  0  0  0  0  0  0  0  0  0
    5.8790   -1.3300   21.8370 C   0  0  0  0  0  0  0  0  0  0  0  0
    5.4110   -0.7280   23.0190 C   0  0  0  0  0  0  0  0  0  0  0  0
    4.8710   -1.5230   24.0460 C   0  0  0  0  0  0  0  0  0  0  0  0
  1  2  2  0
  2  3  1  0
  2  4  1  0
  4  5  1  0
  5  6  1  0
  6  7  1  0
  7 22  2  0
  7  8  1  0
  8  9  2  0
  9 10  1  0
 10 11  1  0
 10 21  2  0
 11 12  1  0
 12 13  2  0
 12 14  1  0
 14 28  1  0
 14 15  1  0
 15 16  2  0
 15 20  1  0
 16 17  1  0
 17 18  2  0
 18 19  1  0
 19 20  2  0
 21 22  1  0
 23 24  1  0
 24 25  1  0
 25 26  2  0
 25 30  1  0
 26 27  1  0
 27 28  2  0
 28 29  1  0
 29 30  2  0
M  END
>  <original SMILES>  (1062) 
COc1ccc(N(C(=O)Nc2ccc(CCNC(=N)N)cc2)c2cccnc2)cc1

>  <AutoDock Predicted Affinity>  (1062) 
-8.07848

>  <ref_pdb>  (1062) 
x0434_0

>  <ref_mols>  (1062) 
x0434_0

>  <creator>  (1062) 
Will Poole

>  <energy minimised>  (1062) 
True

$$$$
WPE0002_minimised.pdb
     RDKit          3D

 29 31  0  0  0  0  0  0  0  0999 V2000
   14.0250   -1.6510   23.7750 C   0  0  0  0  0  0  0  0  0  0  0  0
   13.2620   -0.6880   22.8350 C   0  0  0  0  0  0  0  0  0  0  0  0
   13.8310    0.7460   22.9380 C   0  0  0  0  0  0  0  0  0  0  0  0
   13.4910   -1.1630   21.4570 C   0  0  0  0  0  0  0  0  0  0  0  0
   13.7610   -1.5320   20.3970 N   0  0  0  0  0  0  0  0  0  0  0  0
   11.7850   -0.6470   23.2630 C   0  0  0  0  0  0  0  0  0  0  0  0
   10.7030   -0.9300   22.4010 C   0  0  0  0  0  0  0  0  0  0  0  0
    9.3890   -0.8610   22.8900 C   0  0  0  0  0  0  0  0  0  0  0  0
   11.4980   -0.2800   24.5950 C   0  0  0  0  0  0  0  0  0  0  0  0
   10.1880   -0.2070   25.0790 C   0  0  0  0  0  0  0  0  0  0  0  0
    8.2790   -1.1530   22.0880 N   0  0  0  0  0  0  0  0  0  0  0  0
    9.1290   -0.5110   24.2220 C   0  0  0  0  0  0  0  0  0  0  0  0
    7.8660   -0.4920   20.9610 C   0  0  0  0  0  0  0  0  0  0  0  0
    8.6080    0.1750   20.2610 O   0  0  0  0  0  0  0  0  0  0  0  0
    6.4970   -0.6450   20.7320 N   0  0  0  0  0  0  0  0  0  0  0  0
    5.8470    0.0600   19.6760 C   0  0  0  0  0  0  0  0  0  0  0  0
    6.2890   -0.0820   18.3450 C   0  0  0  0  0  0  0  0  0  0  0  0
    4.8370    1.0050   19.9370 C   0  0  0  0  0  0  0  0  0  0  0  0
    5.7860    0.6190   17.3060 N   0  0  0  0  0  0  0  0  0  0  0  0
    4.3290    1.7500   18.8650 C   0  0  0  0  0  0  0  0  0  0  0  0
    4.8370    1.5410   17.5770 C   0  0  0  0  0  0  0  0  0  0  0  0
    4.2640   -4.7320   25.2070 C   0  0  0  0  0  0  0  0  0  0  0  0
    3.6320   -3.6430   24.5060 O   0  0  0  0  0  0  0  0  0  0  0  0
    4.3240   -2.9300   23.5590 C   0  0  0  0  0  0  0  0  0  0  0  0
    4.9620   -3.5700   22.4820 C   0  0  0  0  0  0  0  0  0  0  0  0
    5.6210   -2.8040   21.5020 C   0  0  0  0  0  0  0  0  0  0  0  0
    5.6640   -1.4020   21.6090 C   0  0  0  0  0  0  0  0  0  0  0  0
    5.0590   -0.7730   22.7120 C   0  0  0  0  0  0  0  0  0  0  0  0
    4.3750   -1.5340   23.6720 C   0  0  0  0  0  0  0  0  0  0  0  0
  1  2  1  0
  2  4  1  0
  2  3  1  0
  2  6  1  0
  4  5  3  0
  6  9  2  0
  6  7  1  0
  7  8  2  0
  8 11  1  0
  8 12  1  0
  9 10  1  0
 10 12  2  0
 11 13  1  0
 13 14  2  0
 13 15  1  0
 15 27  1  0
 15 16  1  0
 16 17  2  0
 16 18  1  0
 17 19  1  0
 18 20  2  0
 19 21  2  0
 20 21  1  0
 22 23  1  0
 23 24  1  0
 24 25  2  0
 24 29  1  0
 25 26  1  0
 26 27  2  0
 27 28  1  0
 28 29  2  0
M  END
>  <original SMILES>  (1063) 
COc1ccc(N(C(=O)Nc2cccc(C(C)(C)C#N)c2)c2cccnc2)cc1

>  <AutoDock Predicted Affinity>  (1063) 
-8.08986

>  <ref_pdb>  (1063) 
x0434_0

>  <ref_mols>  (1063) 
x0434_0

>  <creator>  (1063) 
Will Poole

>  <energy minimised>  (1063) 
True

$$$$
